
 + + + + + + + + + + + + + + + + + + + + + + + + + + + + + + + + + + + + + + + +
 + + + + + + + + + + + + + + + + + + + + + + + + + + + + + + + + + + + + + + + +
 + +                                                                         + +
 + +                      ASPEN PLUS CALCULATION HISTORY                     + +
 + +                                                                         + +
 + + + + + + + + + + + + + + + + + + + + + + + + + + + + + + + + + + + + + + + +
 + + + + + + + + + + + + + + + + + + + + + + + + + + + + + + + + + + + + + + + +

 ASPEN PLUS IS A TRADEMARK OF           HOTLINE:
 ASPEN TECHNOLOGY, INC.                 U.S.A. 888/996-7100
 781/221-6400                           EUROPE (44) 1189-226555

 PLATFORM: WIN-X64                                       NOVEMBER 18, 2024   
 VERSION: 37.0   Build 395                               MONDAY      
 INSTALLATION:                                           9:24:38 P.M.        

 THIS COPY OF ASPEN PLUS LICENSED TO                                 


      ASPEN PLUS (R) IS A PROPRIETARY PRODUCT OF ASPEN TECHNOLOGY, INC.
      (ASPENTECH), AND MAY BE USED ONLY UNDER AGREEMENT WITH ASPENTECH.
      RESTRICTED RIGHTS LEGEND:  USE, REPRODUCTION, OR DISCLOSURE BY THE
      U.S. GOVERNMENT IS SUBJECT TO RESTRICTIONS SET FORTH IN 
      (i) FAR 52.227-14, Alt. III, (ii) FAR 52.227-19, (iii) DFARS 
      252.227-7013(c)(1)(ii), or (iv) THE ACCOMPANYING LICENSE AGREEMENT,
      AS APPLICABLE. FOR PURPOSES OF THE FAR, THIS SOFTWARE SHALL BE DEEMED
      TO BE "UNPUBLISHED" AND LICENSED WITH DISCLOSURE PROHIBITIONS.
      CONTRACTOR/SUBCONTRACTOR: ASPEN TECHNOLOGY, INC. 20 CROSBY DRIVE,
      BEDFORD, MA 01730.
 *** INPUT SUMMARY ***

 >>CURRENT RUN

   ORIGINAL RUN                           NOVEMBER 18, 2024   
   9:24:38 P.M.                           MONDAY      
   INPUT FILE: _2427lsg.inm
   RUN ID : _2427lsg
          1    ;
          2    ;输入文件创建由Aspen Plus Rel. 37.0 at 21:24:37 Mon Nov 18, 2024
          3    ;Directory d:\OneDrive\Current\2_Codes\BO_Related\ASBO\ASBO\extractive_distillation  Runid EXTRACTIVE_DISTILLATION_SQP$BACKUP
          4    ;
          5
          6
          7    DYNAMICS
          8        DYNAMICS RESULTS=ON
          9
         10    IN-UNITS MET PRESSURE=bar TEMPERATURE=C DELTA-T=C PDROP=bar  &
         11            INVERSE-PRES='1/bar' SHORT-LENGTH=mm
         12
         13    DEF-STREAMS CONVEN ALL
         14
         15    MODEL-OPTION
         16
         17    DATABANKS 'APV110 PURE37' / 'APV110 AQUEOUS' / 'APV110 SOLIDS' &
         18             / 'APV110 INORGANIC' / 'APESV110 AP-EOS' /  &
         19            'NISTV110 NIST-TRC' / NOASPENPCD
         20
         21    PROP-SOURCES 'APV110 PURE37' / 'APV110 AQUEOUS' /  &
         22            'APV110 SOLIDS' / 'APV110 INORGANIC' / 'APESV110 AP-EOS' &
         23             / 'NISTV110 NIST-TRC'
         24
         25    COMPONENTS
         26        N-HEPTAN C7H16-1 /
         27        TOLUE-01 C7H8 /
         28        PHENO-01 C6H6O /
         29        WATER H2O
         30
         31    SOLVE
         32        RUN-MODE MODE=SIM
         33
         34    FLOWSHEET
         35        BLOCK COLUMN IN=FEED SOLVENT OUT=C7 RICH-SOL
         36        BLOCK COL-REC IN=RICH-SOL OUT=TOLUENE LEAN-SOL
         37
         38    PROPERTIES NRTL-RK
         39
         40    PROP-DATA NRTL-1
         41        IN-UNITS MET PRESSURE=bar TEMPERATURE=C DELTA-T=C PDROP=bar  &
         42            INVERSE-PRES='1/bar' SHORT-LENGTH=mm
         43        PROP-LIST NRTL
         44        BPVAL N-HEPTAN TOLUE-01 -1.721200000 399.6702000 .3000000000  &
         45            0.0 0.0 0.0 30.00000000 110.7000000
         46        BPVAL TOLUE-01 N-HEPTAN 2.161900000 -346.3037000 .3000000000  &
         47            0.0 0.0 0.0 30.00000000 110.7000000
         48        BPVAL N-HEPTAN PHENO-01 -8.002900000 3646.189900 .4700000000  &
         49            0.0 0.0 0.0 85.10000000 142.0000000
         50        BPVAL PHENO-01 N-HEPTAN -4.966600000 2396.807400 .4700000000  &
         51            0.0 0.0 0.0 85.10000000 142.0000000
         52        BPVAL TOLUE-01 PHENO-01 -14.21620000 5510.813500 .3000000000  &
         53            0.0 0.0 0.0 110.5000000 172.7000000
         54        BPVAL PHENO-01 TOLUE-01 18.37620000 -6210.482900 .3000000000  &
         55            0.0 0.0 0.0 110.5000000 172.7000000
         56        BPVAL N-HEPTAN WATER -9.865200000 4795.660200 .2000000000  &
         57            0.0 0.0 0.0 0.0 50.00000000
         58        BPVAL WATER N-HEPTAN 10.54680000 440.7775000 .2000000000  &
         59            0.0 0.0 0.0 0.0 50.00000000
         60        BPVAL TOLUE-01 WATER -10.05170000 5130.280200 .2000000000  &
         61            0.0 0.0 0.0 .0500000000 349.4587000
         62        BPVAL WATER TOLUE-01 4.204900000 937.7894000 .2000000000  &
         63            0.0 0.0 0.0 .0500000000 349.4587000
         64        BPVAL PHENO-01 WATER 2.364800000 -899.4135000 .3000000000  &
         65            0.0 0.0 0.0 44.40000000 182.0000000
         66        BPVAL WATER PHENO-01 -.7167000000 1468.010300 .3000000000  &
         67            0.0 0.0 0.0 44.40000000 182.0000000
         68
         69    STREAM FEED
         70        SUBSTREAM MIXED PRES=1. VFRAC=0.5 MOLE-FLOW=100.
         71        MOLE-FRAC N-HEPTAN 0.5 / TOLUE-01 0.5
         72
         73    STREAM SOLVENT
         74        SUBSTREAM MIXED TEMP=181. PRES=1. MOLE-FLOW=91.
         75        MOLE-FRAC PHENO-01 1.
         76
         77    BLOCK COL-REC RADFRAC
         78        SUBOBJECTS INTERNALS = CS-1
         79        PARAM NSTAGE=28 ALGORITHM=NEWTON HYDRAULIC=NO MAXOL=25  &
         80            DAMPING=NONE
         81        PARAM2 STATIC-DP=YES
         82        COL-CONFIG CONDENSER=PARTIAL-V CA-CONFIG=INT-1
         83        FEEDS RICH-SOL 21
         84        PRODUCTS TOLUENE 1 V / LEAN-SOL 28 L
         85        P-SPEC 1 1.
         86        COL-SPECS MOLE-D=47. MOLE-RR=2.
         87        T-EST 1 110.060213 / 2 110.115323 / 3 110.132823 / 4  &
         88            110.138361 / 5 110.140128 / 6 110.140726 / 7  &
         89            110.140999 / 8 110.14126 / 9 110.141704 / 10  &
         90            110.142595 / 11 110.14443 / 12 110.148229 / 13  &
         91            110.156105 / 14 110.172455 / 15 110.206494 / 16  &
         92            110.27777 / 17 110.428826 / 18 110.757098 / 19  &
         93            111.508911 / 20 113.427005 / 21 119.291032 / 22  &
         94            119.363012 / 23 119.561906 / 24 120.460242 / 25  &
         95            124.862912 / 26 142.326505 / 27 169.159635 / 28  &
         96            179.215379
         97        L-EST 1 100. / 2 100.002776 / 3 100.0037 / 4  &
         98            100.00401 / 5 100.004137 / 6 100.004237 / 7  &
         99            100.004394 / 8 100.004702 / 9 100.005335 / 10  &
        100            100.006643 / 11 100.009349 / 12 100.01495 / 13  &
        101            100.02653 / 14 100.050432 / 15 100.099587 / 16  &
        102            100.199863 / 17 100.40045 / 18 100.780036 / 19  &
        103            101.358265 / 20 101.189041 / 21 218.424822 / 22  &
        104            218.329163 / 23 217.751905 / 24 214.731192 / 25  &
        105            201.119787 / 26 171.870291 / 27 162.630868 / 28 60.
        106        V-EST 1 50. / 2 150. / 3 150.002776 / 4 150.0037 /  &
        107            5 150.00401 / 6 150.004137 / 7 150.004237 / 8  &
        108            150.004394 / 9 150.004702 / 10 150.005335 / 11  &
        109            150.006643 / 12 150.009349 / 13 150.01495 / 14  &
        110            150.02653 / 15 150.050432 / 16 150.099587 / 17  &
        111            150.199863 / 18 150.40045 / 19 150.780036 / 20  &
        112            151.358265 / 21 151.189041 / 22 158.424822 / 23  &
        113            158.329163 / 24 157.751905 / 25 154.731192 / 26  &
        114            141.119787 / 27 111.870291 / 28 102.630868
        115        X-EST 1 N-HEPTAN 0.0038551204 / 1 TOLUE-01 0.996144804 /  &
        116            1 PHENO-01 7.5975804E-08 / 2 N-HEPTAN 0.00249168627 /  &
        117            2 TOLUE-01 0.997508131 / 2 PHENO-01 1.8269282E-07 /  &
        118            3 N-HEPTAN 0.00206099418 / 3 TOLUE-01 0.997938602 /  &
        119            3 PHENO-01 4.0364388E-07 / 4 N-HEPTAN 0.00192514223 /  &
        120            4 TOLUE-01 0.998073997 / 4 PHENO-01 8.6114411E-07 /  &
        121            5 N-HEPTAN 0.00188230997 / 5 TOLUE-01 0.998115882 /  &
        122            5 PHENO-01 1.8084701E-06 / 6 N-HEPTAN 0.00186880619 /  &
        123            6 TOLUE-01 0.998127424 / 6 PHENO-01 3.7700830E-06 /  &
        124            7 N-HEPTAN 0.00186454629 / 7 TOLUE-01 0.998127622 /  &
        125            7 PHENO-01 7.8320072E-06 / 8 N-HEPTAN 0.00186319682 /  &
        126            8 TOLUE-01 0.99812056 / 8 PHENO-01 1.6243200E-05 / 9  &
        127            N-HEPTAN 0.00186275761 / 9 TOLUE-01 0.998103581 / 9  &
        128            PHENO-01 3.3661179E-05 / 10 N-HEPTAN 0.0018625905 /  &
        129            10 TOLUE-01 0.998067677 / 10 PHENO-01 6.9732943E-05 /  &
        130            11 N-HEPTAN 0.00186247846 / 11 TOLUE-01 0.997993075 /  &
        131            11 PHENO-01 0.00014444625 / 12 N-HEPTAN 0.00186232019 /  &
        132            12 TOLUE-01 0.997838439 / 12 PHENO-01 0.0002992405 /  &
        133            13 N-HEPTAN 0.00186201555 / 13 TOLUE-01 0.997517841 /  &
        134            13 PHENO-01 0.00062014296 / 14 N-HEPTAN 0.00186139136 /  &
        135            14 TOLUE-01 0.996852376 / 14 PHENO-01 0.00128623255 /  &
        136            15 N-HEPTAN 0.00186009818 / 15 TOLUE-01 0.995467509 /  &
        137            15 PHENO-01 0.00267239308 / 16 N-HEPTAN 0.00185740831 /  &
        138            16 TOLUE-01 0.992570069 / 16 PHENO-01 0.00557252278 /  &
        139            17 N-HEPTAN 0.00185178398 / 17 TOLUE-01 0.986440407 /  &
        140            17 PHENO-01 0.0117078092 / 18 N-HEPTAN 0.00183990674 /  &
        141            18 TOLUE-01 0.973171697 / 18 PHENO-01 0.0249883967 /  &
        142            19 N-HEPTAN 0.00181436963 / 19 TOLUE-01 0.943063415 /  &
        143            19 PHENO-01 0.0551222158 / 20 N-HEPTAN 0.00175825686 /  &
        144            20 TOLUE-01 0.868222061 / 20 PHENO-01 0.130019682 /  &
        145            21 N-HEPTAN 0.00164243339 / 21 TOLUE-01 0.662042463 /  &
        146            21 PHENO-01 0.336315103 / 22 N-HEPTAN 0.00095842998 /  &
        147            22 TOLUE-01 0.661561802 / 22 PHENO-01 0.337479768 /  &
        148            23 N-HEPTAN 0.00055794168 / 23 TOLUE-01 0.656318585 /  &
        149            23 PHENO-01 0.343123473 / 24 N-HEPTAN 0.00032246115 /  &
        150            24 TOLUE-01 0.62904885 / 24 PHENO-01 0.370628689 /  &
        151            25 N-HEPTAN 0.00018133567 / 25 TOLUE-01 0.506375851 /  &
        152            25 PHENO-01 0.493442813 / 26 N-HEPTAN 8.8130269E-05 /  &
        153            26 TOLUE-01 0.204972178 / 26 PHENO-01 0.794939692 /  &
        154            27 N-HEPTAN 2.8009190E-05 / 27 TOLUE-01 0.0431578927 /  &
        155            27 PHENO-01 0.956814098 / 28 N-HEPTAN 5.5958509E-06 /  &
        156            28 TOLUE-01 0.00650561838 / 28 PHENO-01 0.993488786
        157        Y-EST 1 N-HEPTAN 0.00815142901 / 1 TOLUE-01 0.991848547 /  &
        158            1 PHENO-01 2.4425165E-08 / 2 N-HEPTAN 0.00528722327 /  &
        159            2 TOLUE-01 0.994712718 / 2 PHENO-01 5.8792257E-08 /  &
        160            3 N-HEPTAN 0.00437823226 / 3 TOLUE-01 0.995621638 /  &
        161            3 PHENO-01 1.2993791E-07 / 4 N-HEPTAN 0.00409108904 /  &
        162            4 TOLUE-01 0.995908634 / 4 PHENO-01 2.7724076E-07 /  &
        163            5 N-HEPTAN 0.00400051567 / 5 TOLUE-01 0.995998902 /  &
        164            5 PHENO-01 5.8224525E-07 / 6 N-HEPTAN 0.00397195868 /  &
        165            6 TOLUE-01 0.996026828 / 6 PHENO-01 1.2138048E-06 /  &
        166            7 N-HEPTAN 0.00396295463 / 7 TOLUE-01 0.996034524 /  &
        167            7 PHENO-01 2.5215656E-06 / 8 N-HEPTAN 0.00396011248 /  &
        168            8 TOLUE-01 0.996034658 / 8 PHENO-01 5.2295561E-06 /  &
        169            9 N-HEPTAN 0.00395920851 / 9 TOLUE-01 0.996029954 /  &
        170            9 PHENO-01 1.0837111E-05 / 10 N-HEPTAN 0.00395890686 /  &
        171            10 TOLUE-01 0.996018644 / 10 PHENO-01 2.2449326E-05 /  &
        172            11 N-HEPTAN 0.00395877718 / 11 TOLUE-01 0.995994725 /  &
        173            11 PHENO-01 4.6497799E-05 / 12 N-HEPTAN 0.00395866466 /  &
        174            12 TOLUE-01 0.995945027 / 12 PHENO-01 9.6308644E-05 /  &
        175            13 N-HEPTAN 0.00395848087 / 13 TOLUE-01 0.995842007 /  &
        176            13 PHENO-01 0.00019951174 / 14 N-HEPTAN 0.00395811597 /  &
        177            14 TOLUE-01 0.995628411 / 14 PHENO-01 0.00041347333 /  &
        178            15 N-HEPTAN 0.00395736588 / 15 TOLUE-01 0.995184994 /  &
        179            15 PHENO-01 0.00085764060 / 16 N-HEPTAN 0.00395581708 /  &
        180            16 TOLUE-01 0.994261988 / 16 PHENO-01 0.00178219454 /  &
        181            17 N-HEPTAN 0.0039526235 / 17 TOLUE-01 0.992329881 /  &
        182            17 PHENO-01 0.003717495 / 18 N-HEPTAN 0.00394607459 /  &
        183            18 TOLUE-01 0.98823832 / 18 PHENO-01 0.00781560515 /  &
        184            19 N-HEPTAN 0.00393286363 / 19 TOLUE-01 0.979365106 /  &
        185            19 PHENO-01 0.0167020304 / 20 N-HEPTAN 0.00390776684 /  &
        186            20 TOLUE-01 0.959179195 / 20 PHENO-01 0.0369130379 /  &
        187            21 N-HEPTAN 0.00387255433 / 21 TOLUE-01 0.909106798 /  &
        188            21 PHENO-01 0.0870206473 / 22 N-HEPTAN 0.00226235046 /  &
        189            22 TOLUE-01 0.910312969 / 22 PHENO-01 0.0874246803 /  &
        190            23 N-HEPTAN 0.00131951348 / 23 TOLUE-01 0.909800157 /  &
        191            23 PHENO-01 0.0888803299 / 24 N-HEPTAN 0.00076802312 /  &
        192            24 TOLUE-01 0.903471073 / 24 PHENO-01 0.0957609041 /  &
        193            25 N-HEPTAN 0.00044533204 / 25 TOLUE-01 0.870451686 /  &
        194            25 PHENO-01 0.129102982 / 26 N-HEPTAN 0.00025605529 /  &
        195            26 TOLUE-01 0.718906464 / 26 PHENO-01 0.28083748 /  &
        196            27 N-HEPTAN 0.00013239634 / 27 TOLUE-01 0.311416826 /  &
        197            27 PHENO-01 0.688450778 / 28 N-HEPTAN 4.1112464E-05 /  &
        198            28 TOLUE-01 0.0645855246 / 28 PHENO-01 0.935373363
        199        REPORT NOHYDRAULIC
        200        CONVERGENCE STABLE-METH=DOGLEG
        201        INTERNALS CS-1 STAGE1=2 STAGE2=27 P-UPDATE=NO
        202        TRAY-SIZE 1 2 27 SIEVE
        203        UTILITIES COND-UTIL=WATER-C REB-UTIL=WATER-H
        204
        205    BLOCK COLUMN RADFRAC
        206        SUBOBJECTS INTERNALS = CS-1
        207        PARAM NSTAGE=50 ALGORITHM=NEWTON HYDRAULIC=NO MAXOL=200  &
        208            TOLOL=1E-07 DAMPING=NONE
        209        PARAM2 STATIC-DP=YES
        210        COL-CONFIG CONDENSER=PARTIAL-V CA-CONFIG=INT-1
        211        FEEDS FEED 37 / SOLVENT 4
        212        PRODUCTS RICH-SOL 50 L / C7 1 V
        213        P-SPEC 1 1.
        214        COL-SPECS MOLE-D=57.5 MOLE-RR=5.45
        215        T-EST 1 98.1181154 / 2 98.2452199 / 3 98.5473017 / 4  &
        216            100.010289 / 5 100.012667 / 6 100.015666 / 7  &
        217            100.01945 / 8 100.024221 / 9 100.030232 / 10  &
        218            100.037802 / 11 100.047325 / 12 100.059291 / 13  &
        219            100.074305 / 14 100.093113 / 15 100.116619 / 16  &
        220            100.145918 / 17 100.182316 / 18 100.227351 / 19  &
        221            100.2828 / 20 100.350673 / 21 100.433184 / 22  &
        222            100.532692 / 23 100.651608 / 24 100.792282 / 25  &
        223            100.956865 / 26 101.14718 / 27 101.364619 / 28  &
        224            101.6101 / 29 101.884071 / 30 102.18658 / 31  &
        225            102.517351 / 32 102.875801 / 33 103.260764 / 34  &
        226            103.668582 / 35 104.080811 / 36 104.386201 / 37  &
        227            104.402663 / 38 104.789224 / 39 105.298588 / 40  &
        228            105.964024 / 41 106.816797 / 42 107.868315 / 43  &
        229            109.080491 / 44 110.345378 / 45 111.51345 / 46  &
        230            112.471413 / 47 113.219156 / 48 113.996362 / 49  &
        231            116.032774 / 50 126.633731
        232        L-EST 1 350. / 2 350.444053 / 3 348.785321 / 4  &
        233            406.998799 / 5 407.020026 / 6 407.046795 / 7  &
        234            407.080537 / 8 407.12304 / 9 407.176537 / 10  &
        235            407.2438 / 11 407.328265 / 12 407.434157 / 13  &
        236            407.566643 / 14 407.731982 / 15 407.937671 / 16  &
        237            408.192552 / 17 408.506863 / 18 408.892153 / 19  &
        238            409.361019 / 20 409.926564 / 21 410.601511 / 22  &
        239            411.396907 / 23 412.320441 / 24 413.374479 / 25  &
        240            414.554077 / 26 415.845362 / 27 417.224701 / 28  &
        241            418.659054 / 29 420.107654 / 30 421.524904 / 31  &
        242            422.864158 / 32 424.082296 / 33 425.147609 / 34  &
        243            426.069716 / 35 427.065078 / 36 429.102622 / 37  &
        244            481.592633 / 38 481.482818 / 39 481.192321 / 40  &
        245            480.652339 / 41 479.844408 / 42 478.869962 / 43  &
        246            477.968146 / 44 477.389726 / 45 477.206083 / 46  &
        247            477.274856 / 47 477.324247 / 48 476.556524 / 49  &
        248            467.799998 / 50 110.
        249        V-EST 1 50. / 2 400. / 3 400.444053 / 4 398.785321 /  &
        250            5 396.998799 / 6 397.020026 / 7 397.046795 / 8  &
        251            397.080537 / 9 397.12304 / 10 397.176537 / 11  &
        252            397.2438 / 12 397.328265 / 13 397.434157 / 14  &
        253            397.566643 / 15 397.731982 / 16 397.937671 / 17  &
        254            398.192552 / 18 398.506863 / 19 398.892153 / 20  &
        255            399.361019 / 21 399.926564 / 22 400.601511 / 23  &
        256            401.396907 / 24 402.320441 / 25 403.374479 / 26  &
        257            404.554077 / 27 405.845362 / 28 407.224701 / 29  &
        258            408.659054 / 30 410.107654 / 31 411.524904 / 32  &
        259            412.864158 / 33 414.082296 / 34 415.147609 / 35  &
        260            416.069716 / 36 417.065078 / 37 369.102599 / 38  &
        261            371.592633 / 39 371.482818 / 40 371.192321 / 41  &
        262            370.652339 / 42 369.844408 / 43 368.869962 / 44  &
        263            367.968146 / 45 367.389726 / 46 367.206083 / 47  &
        264            367.274856 / 48 367.324247 / 49 366.556524 / 50  &
        265            357.799998
        266        X-EST 1 N-HEPTAN 0.986428179 / 1 TOLUE-01 0.00040793740 /  &
        267            1 PHENO-01 0.013163884 / 2 N-HEPTAN 0.976723349 / 2  &
        268            TOLUE-01 0.00047953250 / 2 PHENO-01 0.0227971185 / 3  &
        269            N-HEPTAN 0.954132744 / 3 TOLUE-01 0.00056758894 / 3  &
        270            PHENO-01 0.0452996671 / 4 N-HEPTAN 0.813273435 / 4  &
        271            TOLUE-01 0.00066475258 / 4 PHENO-01 0.186061813 / 5  &
        272            N-HEPTAN 0.813054134 / 5 TOLUE-01 0.00089285779 / 5  &
        273            PHENO-01 0.186053008 / 6 N-HEPTAN 0.812777406 / 6  &
        274            TOLUE-01 0.00118069336 / 6 PHENO-01 0.186041901 / 7  &
        275            N-HEPTAN 0.812428336 / 7 TOLUE-01 0.0015437676 / 7  &
        276            PHENO-01 0.186027896 / 8 N-HEPTAN 0.811988215 / 8  &
        277            TOLUE-01 0.00200153741 / 8 PHENO-01 0.186010248 / 9  &
        278            N-HEPTAN 0.811433609 / 9 TOLUE-01 0.00257836785 / 9  &
        279            PHENO-01 0.185988023 / 10 N-HEPTAN 0.810735239 / 10  &
        280            TOLUE-01 0.00330469823 / 10 PHENO-01 0.185960063 / 11  &
        281            N-HEPTAN 0.809856633 / 11 TOLUE-01 0.00421844331 / 11  &
        282            PHENO-01 0.185924924 / 12 N-HEPTAN 0.80875252 / 12  &
        283            TOLUE-01 0.0053666523 / 12 PHENO-01 0.185880828 / 13  &
        284            N-HEPTAN 0.807366976 / 13 TOLUE-01 0.00680743468 / 13  &
        285            PHENO-01 0.18582559 / 14 N-HEPTAN 0.805631314 / 14  &
        286            TOLUE-01 0.00861213574 / 14 PHENO-01 0.18575655 / 15  &
        287            N-HEPTAN 0.803461795 / 15 TOLUE-01 0.0108677013 / 15  &
        288            PHENO-01 0.185670504 / 16 N-HEPTAN 0.800757258 / 16  &
        289            TOLUE-01 0.013679104 / 16 PHENO-01 0.185563638 / 17  &
        290            N-HEPTAN 0.797396899 / 17 TOLUE-01 0.0171716063 / 17  &
        291            PHENO-01 0.185431495 / 18 N-HEPTAN 0.793238509 / 18  &
        292            TOLUE-01 0.0214925098 / 18 PHENO-01 0.185268981 / 19  &
        293            N-HEPTAN 0.788117662 / 19 TOLUE-01 0.0268118883 / 19  &
        294            PHENO-01 0.18507045 / 20 N-HEPTAN 0.781848441 / 20  &
        295            TOLUE-01 0.0333216569 / 20 PHENO-01 0.184829903 / 21  &
        296            N-HEPTAN 0.774226432 / 21 TOLUE-01 0.0412322262 / 21  &
        297            PHENO-01 0.184541342 / 22 N-HEPTAN 0.765034657 / 22  &
        298            TOLUE-01 0.0507660233 / 22 PHENO-01 0.18419932 / 23  &
        299            N-HEPTAN 0.754052913 / 23 TOLUE-01 0.0621473928 / 23  &
        300            PHENO-01 0.183799694 / 24 N-HEPTAN 0.741070527 / 24  &
        301            TOLUE-01 0.0755889153 / 24 PHENO-01 0.183340557 / 25  &
        302            N-HEPTAN 0.725901794 / 25 TOLUE-01 0.0912749557 / 25  &
        303            PHENO-01 0.182823251 / 26 N-HEPTAN 0.708402559 / 26  &
        304            TOLUE-01 0.109344143 / 26 PHENO-01 0.182253299 / 27  &
        305            N-HEPTAN 0.688485789 / 27 TOLUE-01 0.129873158 / 27  &
        306            PHENO-01 0.181641053 / 28 N-HEPTAN 0.666133811 / 28  &
        307            TOLUE-01 0.152864334 / 28 PHENO-01 0.181001855 / 29  &
        308            N-HEPTAN 0.641405545 / 29 TOLUE-01 0.178238865 / 29  &
        309            PHENO-01 0.18035559 / 30 N-HEPTAN 0.614438345 / 30  &
        310            TOLUE-01 0.205836038 / 30 PHENO-01 0.179725617 / 31  &
        311            N-HEPTAN 0.585445737 / 31 TOLUE-01 0.235417261 / 31  &
        312            PHENO-01 0.179137002 / 32 N-HEPTAN 0.554714416 / 32  &
        313            TOLUE-01 0.266672743 / 32 PHENO-01 0.178612841 / 33  &
        314            N-HEPTAN 0.522610004 / 33 TOLUE-01 0.299231045 / 33  &
        315            PHENO-01 0.178158951 / 34 N-HEPTAN 0.489636375 / 34  &
        316            TOLUE-01 0.332693146 / 34 PHENO-01 0.177670479 / 35  &
        317            N-HEPTAN 0.456805096 / 35 TOLUE-01 0.36686486 / 35  &
        318            PHENO-01 0.176330044 / 36 N-HEPTAN 0.427741283 / 36  &
        319            TOLUE-01 0.403369992 / 36 PHENO-01 0.168888726 / 37  &
        320            N-HEPTAN 0.409623122 / 37 TOLUE-01 0.439716351 / 37  &
        321            PHENO-01 0.150660527 / 38 N-HEPTAN 0.38146135 / 38  &
        322            TOLUE-01 0.46779051 / 38 PHENO-01 0.15074814 / 39  &
        323            N-HEPTAN 0.34653898 / 39 TOLUE-01 0.502467193 / 39  &
        324            PHENO-01 0.150993827 / 40 N-HEPTAN 0.304478989 / 40  &
        325            TOLUE-01 0.544035823 / 40 PHENO-01 0.151485188 / 41  &
        326            N-HEPTAN 0.256004392 / 41 TOLUE-01 0.591699017 / 41  &
        327            PHENO-01 0.152296591 / 42 N-HEPTAN 0.203638352 / 42  &
        328            TOLUE-01 0.642936375 / 42 PHENO-01 0.153425273 / 43  &
        329            N-HEPTAN 0.151860219 / 43 TOLUE-01 0.693403532 / 43  &
        330            PHENO-01 0.154736249 / 44 N-HEPTAN 0.10587704 / 44  &
        331            TOLUE-01 0.73811558 / 44 PHENO-01 0.15600738 / 45  &
        332            N-HEPTAN 0.0693722261 / 45 TOLUE-01 0.773527589 / 45  &
        333            PHENO-01 0.157100185 / 46 N-HEPTAN 0.0431551249 / 46  &
        334            TOLUE-01 0.798606936 / 46 PHENO-01 0.158237939 / 47  &
        335            N-HEPTAN 0.025732763 / 47 TOLUE-01 0.813313655 / 47  &
        336            PHENO-01 0.160953582 / 48 N-HEPTAN 0.0147385148 / 48  &
        337            TOLUE-01 0.812117122 / 48 PHENO-01 0.173144363 / 49  &
        338            N-HEPTAN 0.00795216078 / 49 TOLUE-01 0.755271935 / 49  &
        339            PHENO-01 0.236775904 / 50 N-HEPTAN 0.00370824729 / 50  &
        340            TOLUE-01 0.454388768 / 50 PHENO-01 0.541902985
        341        Y-EST 1 N-HEPTAN 0.991841856 / 1 TOLUE-01 0.00034471137 /  &
        342            1 PHENO-01 0.00781343265 / 2 N-HEPTAN 0.987104888 /  &
        343            2 TOLUE-01 0.00040003414 / 2 PHENO-01 0.0124950776 /  &
        344            3 N-HEPTAN 0.978611067 / 3 TOLUE-01 0.00046269854 /  &
        345            3 PHENO-01 0.0209262347 / 4 N-HEPTAN 0.95886074 / 4  &
        346            TOLUE-01 0.00053964438 / 4 PHENO-01 0.0405996152 / 5  &
        347            N-HEPTAN 0.958676462 / 5 TOLUE-01 0.00072491169 / 5  &
        348            PHENO-01 0.0405986266 / 6 N-HEPTAN 0.958443864 / 6  &
        349            TOLUE-01 0.00095875912 / 6 PHENO-01 0.0405973769 / 7  &
        350            N-HEPTAN 0.958150364 / 7 TOLUE-01 0.00125383966 / 7  &
        351            PHENO-01 0.0405957967 / 8 N-HEPTAN 0.95778015 / 8  &
        352            TOLUE-01 0.00162605127 / 8 PHENO-01 0.0405937986 / 9  &
        353            N-HEPTAN 0.957313389 / 9 TOLUE-01 0.00209533943 / 9  &
        354            PHENO-01 0.0405912715 / 10 N-HEPTAN 0.956725245 / 10  &
        355            TOLUE-01 0.00268668051 / 10 PHENO-01 0.0405880746 /  &
        356            11 N-HEPTAN 0.955984693 / 11 TOLUE-01 0.0034312768 /  &
        357            11 PHENO-01 0.0405840298 / 12 N-HEPTAN 0.955053097 /  &
        358            12 TOLUE-01 0.0043679922 / 12 PHENO-01 0.0405789108 /  &
        359            13 N-HEPTAN 0.953882517 / 13 TOLUE-01 0.00554505189 /  &
        360            13 PHENO-01 0.0405724309 / 14 N-HEPTAN 0.952413759 /  &
        361            14 TOLUE-01 0.00702201485 / 14 PHENO-01 0.0405642265 /  &
        362            15 N-HEPTAN 0.950574161 / 15 TOLUE-01 0.00887200151 /  &
        363            15 PHENO-01 0.0405538373 / 16 N-HEPTAN 0.948275204 /  &
        364            16 TOLUE-01 0.0111841142 / 16 PHENO-01 0.040540682 /  &
        365            17 N-HEPTAN 0.945410052 / 17 TOLUE-01 0.0140659184 /  &
        366            17 PHENO-01 0.0405240293 / 18 N-HEPTAN 0.941851279 /  &
        367            18 TOLUE-01 0.0176457553 / 18 PHENO-01 0.0405029661 /  &
        368            19 N-HEPTAN 0.937449112 / 19 TOLUE-01 0.0220745234 /  &
        369            19 PHENO-01 0.0404763644 / 20 N-HEPTAN 0.93203073 /  &
        370            20 TOLUE-01 0.0275264159 / 20 PHENO-01 0.0404428545 /  &
        371            21 N-HEPTAN 0.925401238 / 21 TOLUE-01 0.0341979481 /  &
        372            21 PHENO-01 0.0404008136 / 22 N-HEPTAN 0.917347103 /  &
        373            22 TOLUE-01 0.0423045083 / 22 PHENO-01 0.0403483885 /  &
        374            23 N-HEPTAN 0.907642729 / 23 TOLUE-01 0.0520736961 /  &
        375            23 PHENO-01 0.0402835745 / 24 N-HEPTAN 0.896060666 /  &
        376            24 TOLUE-01 0.0637349569 / 24 PHENO-01 0.0402043771 /  &
        377            25 N-HEPTAN 0.882385363 / 25 TOLUE-01 0.0775055579 /  &
        378            25 PHENO-01 0.0401090794 / 26 N-HEPTAN 0.866429634 /  &
        379            26 TOLUE-01 0.0935737464 / 26 PHENO-01 0.0399966199 /  &
        380            27 N-HEPTAN 0.8480521 / 27 TOLUE-01 0.112080843 / 27  &
        381            PHENO-01 0.0398670579 / 28 N-HEPTAN 0.827173228 / 28  &
        382            TOLUE-01 0.133104708 / 28 PHENO-01 0.039722064 / 29  &
        383            N-HEPTAN 0.803787512 / 29 TOLUE-01 0.156647142 / 29  &
        384            PHENO-01 0.0395653465 / 30 N-HEPTAN 0.777970048 / 30  &
        385            TOLUE-01 0.18262704 / 30 PHENO-01 0.0394029115 / 31  &
        386            N-HEPTAN 0.749877235 / 31 TOLUE-01 0.210879708 / 31  &
        387            PHENO-01 0.0392430568 / 32 N-HEPTAN 0.719743058 / 32  &
        388            TOLUE-01 0.241161058 / 32 PHENO-01 0.0390958841 / 33  &
        389            N-HEPTAN 0.687874509 / 33 TOLUE-01 0.273154456 / 33  &
        390            PHENO-01 0.0389710345 / 34 N-HEPTAN 0.654655068 / 34  &
        391            TOLUE-01 0.306480385 / 34 PHENO-01 0.0388645468 / 35  &
        392            N-HEPTAN 0.620596295 / 35 TOLUE-01 0.340730662 / 35  &
        393            PHENO-01 0.0386730433 / 36 N-HEPTAN 0.58666527 / 36  &
        394            TOLUE-01 0.375702531 / 36 PHENO-01 0.0376321982 / 37  &
        395            N-HEPTAN 0.55864725 / 37 TOLUE-01 0.406508057 / 37  &
        396            PHENO-01 0.0348446928 / 38 N-HEPTAN 0.529783298 / 38  &
        397            TOLUE-01 0.435372977 / 38 PHENO-01 0.0348437245 / 39  &
        398            N-HEPTAN 0.493318048 / 39 TOLUE-01 0.471758909 / 39  &
        399            PHENO-01 0.0349230438 / 40 N-HEPTAN 0.44813424 / 40  &
        400            TOLUE-01 0.516714866 / 40 PHENO-01 0.0351508938 / 41  &
        401            N-HEPTAN 0.393739944 / 41 TOLUE-01 0.570640743 / 41  &
        402            PHENO-01 0.0356193127 / 42 N-HEPTAN 0.331042909 / 42  &
        403            TOLUE-01 0.632538157 / 42 PHENO-01 0.0364189338 / 43  &
        404            N-HEPTAN 0.263259123 / 43 TOLUE-01 0.699162794 / 43  &
        405            PHENO-01 0.037578083 / 44 N-HEPTAN 0.19614861 / 44  &
        406            TOLUE-01 0.764854348 / 44 PHENO-01 0.0389970426 / 45  &
        407            N-HEPTAN 0.136467355 / 45 TOLUE-01 0.823066102 / 45  &
        408            PHENO-01 0.0404665429 / 46 N-HEPTAN 0.0890424821 / 46  &
        409            TOLUE-01 0.869128594 / 46 PHENO-01 0.0418289242 / 47  &
        410            N-HEPTAN 0.0549695916 / 47 TOLUE-01 0.901701384 / 47  &
        411            PHENO-01 0.0433290244 / 48 N-HEPTAN 0.0323282893 / 48  &
        412            TOLUE-01 0.920798358 / 48 PHENO-01 0.0468733522 / 49  &
        413            N-HEPTAN 0.0180485894 / 49 TOLUE-01 0.919467875 / 49  &
        414            PHENO-01 0.0624835355 / 50 N-HEPTAN 0.00925688545 /  &
        415            50 TOLUE-01 0.847773748 / 50 PHENO-01 0.142969366
        416        REPORT NOHYDRAULIC
        417        CONVERGENCE STABLE-METH=DOGLEG
        418        INTERNALS CS-1 STAGE1=2 STAGE2=49 P-UPDATE=NO
        419        TRAY-SIZE 1 2 49 SIEVE
        420        UTILITIES COND-UTIL=WATER-C REB-UTIL=WATER-H
        421
        422    UTILITY WATER-C GENERAL
        423        DESCRIPTION "冷却水，进口温度 = 20 C，出口温度 = 25 C"
        424        COST PRICE=0.05 <$/ton>
        425        PARAM UTILITY-TYPE=WATER COOLING-VALU=-4200. <J/kg> TIN=32.  &
        426            TOUT=38. CALOPT=DUTY MIN-TAPP=5. HTC=0.0135 <GJ/hr-sqm-C>
        427
        428    UTILITY WATER-H GENERAL
        429        DESCRIPTION "低压蒸汽，进口温度 = 125 C，出口温度 = 124 C"
        430        COST PRICE=39.7 <$/ton>
        431        PARAM UTILITY-TYPE=STEAM COOLING-VALU=2776. <kJ/kg> TIN=180.  &
        432            TOUT=179. CALOPT=DUTY MIN-TAPP=10. CALCCO2=YES  &
        433            FACTORSOURCE="US-EPA-Rule-E9-5711" FUELSOURCE="Natural_gas"  &
        434            CO2FACTOR=2.34000000E-7 EFFICIENCY=0.85  &
        435            HTC=0.0216 <GJ/hr-sqm-C>
        436
        437    EO-CONV-OPTI
        438
        439    CONSTRAINT MOLE-C7
        440        DEFINE C7 MOLE-FRAC STREAM=C7 SUBSTREAM=MIXED  &
        441            COMPONENT=N-HEPTAN
        442        SPEC "C7" GE "0.981"
        443        TOL-SPEC "0.001"
        444
        445    CONSTRAINT MOLE-TOL
        446        DEFINE TOLUE MOLE-FRAC STREAM=TOLUENE SUBSTREAM=MIXED  &
        447            COMPONENT=TOLUE-01
        448        SPEC "TOLUE" GE "0.981"
        449        TOL-SPEC "0.001"
        450
        451    OPTIMIZATION PUTIRY
        452        DEFINE E1 BLOCK-VAR BLOCK=COL-REC VARIABLE=COND-UTL-COS  &
        453            SENTENCE=UTILITIES UOM="$/hr"
        454        DEFINE E3 BLOCK-VAR BLOCK=COLUMN VARIABLE=COND-UTL-COS  &
        455            SENTENCE=UTILITIES UOM="$/hr"
        456        DEFINE E2 BLOCK-VAR BLOCK=COL-REC VARIABLE=REB-UTL-COST  &
        457            SENTENCE=UTILITIES UOM="$/hr"
        458        DEFINE E4 BLOCK-VAR BLOCK=COLUMN VARIABLE=REB-UTL-COST  &
        459            SENTENCE=UTILITIES UOM="$/hr"
        460        MINIMIZE "E1+E2+E3+E4"
        461        CONSTRAINTS MOLE-C7 / MOLE-TOL
        462        VARY STREAM-VAR STREAM=SOLVENT SUBSTREAM=MIXED  &
        463            VARIABLE=MOLE-FLOW UOM="kmol/hr"
        464        LIMITS "40" "100" STEP-SIZE=1.
        465        VARY BLOCK-VAR BLOCK=COL-REC VARIABLE=MOLE-RR  &
        466            SENTENCE=COL-SPECS
        467        LIMITS "1" "5"
        468        VARY BLOCK-VAR BLOCK=COL-REC VARIABLE=MOLE-D  &
        469            SENTENCE=COL-SPECS UOM="kmol/hr"
        470        LIMITS "20" "80"
        471        VARY BLOCK-VAR BLOCK=COLUMN VARIABLE=MOLE-RR  &
        472            SENTENCE=COL-SPECS
        473        LIMITS "3" "10"
        474        VARY BLOCK-VAR BLOCK=COLUMN VARIABLE=MOLE-D  &
        475            SENTENCE=COL-SPECS UOM="kmol/hr"
        476        LIMITS "30" "80"
        477
        478    CONV-OPTIONS
        479        PARAM OPT-METHOD=SQP
        480
        481    STREAM-REPOR MOLEFLOW
        482
        483    PROPERTY-REP PCES
        484    ;
        485    ;
        486    ;
        487    ;
        488    ;
 *** INPUT TRANSLATOR MESSAGES ***

  *** THIS RUN USES THE PROPERTIES ENTERPRISE DATABASE ***
      SQLLOCALDB.APESV110 : (DATAVERSION - 37.0.0.22)                         
      SQLLOCALDB.APV110 : (DATAVERSION - 37.0.0.27)                           
      SQLLOCALDB.FACTV110 : (DATAVERSION - 37.0.0.11)                         
      SQLLOCALDB.NISTV110 : (DATAVERSION - 37.0.0.27)                         
 
 CONSTRAINT: MOLE-C7 WILL BE INTERPRETED 
 CONSTRAINT: MOLE-TOL WILL BE INTERPRETED 
 OPTIMIZATION: PUTIRY WILL BE INTERPRETED 
 

 PDF updated                                                                      TIME =      1.56

 *** CALCULATION TRACE ***


 *** FLOWSHEET ANALYSIS MESSAGES ***

 FLOWSHEET CONNECTIVITY BY STREAMS       

   STREAM     SOURCE     DEST           STREAM     SOURCE     DEST
   SOLVENT    ----       COLUMN         FEED       ----       COLUMN  
   C7         COLUMN     ----           RICH-SOL   COLUMN     COL-REC 
   TOLUENE    COL-REC    ----           LEAN-SOL   COL-REC    ----    

 FLOWSHEET CONNECTIVITY BY BLOCKS        

   BLOCK        INLETS                         OUTLETS
   COLUMN       FEED SOLVENT                   C7 RICH-SOL                 
   COL-REC      RICH-SOL                       TOLUENE LEAN-SOL            

      BLOCK $OLVER01 (METHOD: SQP     ) HAS BEEN DEFINED TO CONVERGE
          OPTIMIZATION:  PUTIRY

      COMPUTATION ORDER FOR THE FLOWSHEET IS:
      WATER-H WATER-C 
      $OLVER01 COLUMN COL-REC 
      (RETURN $OLVER01) 

Calculations begin                                                              time      0.28


 SIMULATION CALCULATIONS BEGIN                                                    TIME =      0.28

      UTILITY BLOCK WATER-H  MODEL: GENERAL                                       TIME =      0.28
      HEATING/COOLING VALUE     2.776000D+06 J/KG

      UTILITY BLOCK WATER-C  MODEL: GENERAL                                       TIME =      0.28
      HEATING/COOLING VALUE    -4.200000D+03 J/KG

      CONVERGENCE BLOCK $OLVER01  METHOD: SQP                                     TIME =      0.28
      ITER   1 FOR OPTIMIZATION: PUTIRY                                                                                   

      ENTHALPY CALCULATION FOR INLET STREAM SOLVENT OF BLOCK COLUMN               TIME =      0.28
      KODE = 2  NTRIAL =   1  T = 454.1500  P =  100000.      V =  0.00000      Q =  0.00000    

  *   WARNING WHILE EXECUTING CONVERGENCE BLOCK: "$OLVER01" (MODEL: "SQP")      
                                                               (APLX2S.3)       
      SAMPLED VARIABLE "E1" HAS NOT BEEN CALCULATED.                            
      VALUE IS MISSING.                                                         

  *   WARNING WHILE EXECUTING CONVERGENCE BLOCK: "$OLVER01" (MODEL: "SQP")      
                                                               (APLX2S.3)       
      SAMPLED VARIABLE "E3" HAS NOT BEEN CALCULATED.                            
      VALUE IS MISSING.                                                         

  *   WARNING WHILE EXECUTING CONVERGENCE BLOCK: "$OLVER01" (MODEL: "SQP")      
                                                               (APLX2S.3)       
      SAMPLED VARIABLE "E2" HAS NOT BEEN CALCULATED.                            
      VALUE IS MISSING.                                                         

  *   WARNING WHILE EXECUTING CONVERGENCE BLOCK: "$OLVER01" (MODEL: "SQP")      
                                                               (APLX2S.3)       
      SAMPLED VARIABLE "E4" HAS NOT BEEN CALCULATED.                            
      VALUE IS MISSING.                                                         

      ENTHALPY CALCULATION FOR INLET STREAM FEED OF BLOCK COLUMN                  TIME =      0.29
      KODE = 3  NTRIAL =   5  T = 374.6844  P =  100000.      V = 0.500000      Q =  0.00000    

      UOS BLOCK COLUMN   MODEL: RADFRAC                                           TIME =      0.29

       Convergence iterations:
           Iter     Err/Tol
              0     0.94929E+08
              1     0.96380E+08
              2     0.99532E+08
              3     0.89017E+08
              4     0.87961E+08
              5     0.88677E+08
              6     0.10570E+09
              7     0.10535E+09
              8     0.10044E+09
              9     0.97538E+08
             10     0.94391E+08
             11     0.90735E+08
             12     0.24602E+08
             13     0.94675E+06
             14      1086.9    
             15     0.26896    

      UOS BLOCK COL-REC  MODEL: RADFRAC                                           TIME =      0.33

       Convergence iterations:
           Iter     Err/Tol
              0     0.22408E+06
              1     0.17160E+06
              2     0.22273E+06
              3     0.24992E+06
              4     0.21571E+06
              5     0.20457E+06
              6     0.33655E+06
              7     0.29813E+06
              8     0.32202E+06
              9     0.28850E+06
             10     0.30325E+06
             11     0.52393E+06
             12     0.71420E+06
             13     0.55435E+06
             14     0.57466E+06
             15     0.52524E+06
             16     0.84703E+06
             17     0.10597E+07
             18     0.97479E+06
             19     0.11356E+07
             20     0.99993E+06
             21     0.10214E+07
             22     0.11856E+07
             23     0.12479E+07
             24     0.12040E+07
             25     0.10197E+07

  *** SEVERE ERROR WHILE EXECUTING UNIT OPERATIONS BLOCK: "COL-REC" (MODEL:     
      "RADFRAC")                                               (UDL03K.3)       
      MATERIAL AND ENERGY BALANCES FAILED TO CONVERGE: CHECK COL-SPECS          
      OR SUPPLY BETTER TEMPERATURE AND COMPOSITION ESTIMATES.                   

  **  ERROR WHILE EXECUTING UNIT OPERATIONS BLOCK: "COL-REC" (MODEL: "RADFRAC") 
                                                               (STUTRQ2.3)      
      TEMPERATURES CROSS WITH UTILITY WATER-H                                   
      AT REBOILER OF RADFRAC BLOCK COL-REC                                      
      BLOCK TEMPERATURES       4.548762D+02 K AND     4.554147D+02 K            
      UTILITY TEMPERATURES     4.521500D+02 K AND     4.531500D+02 K            

      CONVERGENCE BLOCK $OLVER01  METHOD: SQP                                     TIME =      0.36
      ITER   1 FOR OPTIMIZATION: PUTIRY                                                                                   

  *   WARNING WHILE EXECUTING CONVERGENCE BLOCK: "$OLVER01" (MODEL: "SQP")      
                                                               (OPTIPH.1)       
      IMPROPER STEP-SIZE (1.0000) - DEFAULT (0.01) SUBSTITUTED.                 
      MAGNITUDE OF INEQUALITY CONSTRAINT VIOLATIONS =      55.965    
      NUMBER OF TIGHT INEQUALITY CONSTRAINTS =    0
      NUMBER OF VIOLATED INEQUALITY CONSTRAINTS =    1
      CONSTRAINT   1: MOLE-C7      ERROR =  -0.11193       STATUS = VIOL
      CONSTRAINT   2: MOLE-TOL     ERROR =   0.18334E-01   STATUS = INAC

  LOOP $OLVER01 ITER    1: OBJ   0.43E+03 UNCON CONST   2 MAX ERR/TOL   0.10E+07  TIME =       0.38

      UOS BLOCK COLUMN   MODEL: RADFRAC                                           TIME =      0.38

       Convergence iterations:
           Iter     Err/Tol
              0     0.12291    
              1     0.53870E-04

      UOS BLOCK COL-REC  MODEL: RADFRAC                                           TIME =      0.39

       Convergence iterations:
           Iter     Err/Tol
              0     0.11414E+07
              1     0.14456E+07
              2     0.15775E+07
              3     0.17000E+07
              4     0.16157E+07
              5     0.16830E+07
              6     0.19858E+07
              7     0.18437E+07
              8     0.15643E+07
              9     0.10213E+07
             10     0.62419E+06
             11     0.46185E+06
             12     0.32471E+06
             13     0.20341E+06
             14     0.11417E+06
             15      34007.    
             16      1218.4    
             17      1.1597    
             18     0.28355E-04

  **  ERROR WHILE EXECUTING UNIT OPERATIONS BLOCK: "COL-REC" (MODEL: "RADFRAC") 
                                                               (STUTRQ2.3)      
      TEMPERATURES CROSS WITH UTILITY WATER-H                                   
      AT REBOILER OF RADFRAC BLOCK COL-REC                                      
      BLOCK TEMPERATURES       4.546034D+02 K AND     4.546040D+02 K            
      UTILITY TEMPERATURES     4.521500D+02 K AND     4.531500D+02 K            

      CONVERGENCE BLOCK $OLVER01  METHOD: SQP                                     TIME =      0.41
      ITER   1 FOR OPTIMIZATION: PUTIRY                                                                                   
      MAGNITUDE OF INEQUALITY CONSTRAINT VIOLATIONS =      66.334    
      NUMBER OF TIGHT INEQUALITY CONSTRAINTS =    0
      NUMBER OF VIOLATED INEQUALITY CONSTRAINTS =    2
      CONSTRAINT   1: MOLE-C7      ERROR =  -0.11193       STATUS = VIOL
      CONSTRAINT   2: MOLE-TOL     ERROR =  -0.71222E-01   STATUS = VIOL

  LOOP $OLVER01 ITER    1: OBJ   0.41E+03 UNCON CONST   3 MAX ERR/TOL   0.10E+07  TIME =       0.41

      UOS BLOCK COL-REC  MODEL: RADFRAC                                           TIME =      0.41

       Convergence iterations:
           Iter     Err/Tol
              0      5982.6    
              1      69.761    
              2     0.29880E-02

  **  ERROR WHILE EXECUTING UNIT OPERATIONS BLOCK: "COL-REC" (MODEL: "RADFRAC") 
                                                               (STUTRQ2.3)      
      TEMPERATURES CROSS WITH UTILITY WATER-H                                   
      AT REBOILER OF RADFRAC BLOCK COL-REC                                      
      BLOCK TEMPERATURES       4.546034D+02 K AND     4.546040D+02 K            
      UTILITY TEMPERATURES     4.521500D+02 K AND     4.531500D+02 K            

      CONVERGENCE BLOCK $OLVER01  METHOD: SQP                                     TIME =      0.42
      ITER   1 FOR OPTIMIZATION: PUTIRY                                                                                   

  LOOP $OLVER01 ITER    1: DERIVATIVE FOR VAR    2                                TIME =      0.42

      UOS BLOCK COL-REC  MODEL: RADFRAC                                           TIME =      0.42

       Convergence iterations:
           Iter     Err/Tol
              0      3175.7    
              1      3501.4    
              2      26.282    
              3     0.21997E-02

  **  ERROR WHILE EXECUTING UNIT OPERATIONS BLOCK: "COL-REC" (MODEL: "RADFRAC") 
                                                               (STUTRQ2.3)      
      TEMPERATURES CROSS WITH UTILITY WATER-H                                   
      AT REBOILER OF RADFRAC BLOCK COL-REC                                      
      BLOCK TEMPERATURES       4.546033D+02 K AND     4.546040D+02 K            
      UTILITY TEMPERATURES     4.521500D+02 K AND     4.531500D+02 K            

      CONVERGENCE BLOCK $OLVER01  METHOD: SQP                                     TIME =      0.42
      ITER   1 FOR OPTIMIZATION: PUTIRY                                                                                   

  LOOP $OLVER01 ITER    1: DERIVATIVE FOR VAR    3                                TIME =      0.42

      UOS BLOCK COLUMN   MODEL: RADFRAC                                           TIME =      0.42

       Convergence iterations:
           Iter     Err/Tol
              0     0.21534E+07
              1      17463.    
              2      1.8464    
              3     0.18646E-03

      UOS BLOCK COL-REC  MODEL: RADFRAC                                           TIME =      0.43

       Convergence iterations:
           Iter     Err/Tol
              0      5175.1    
              1      5145.0    
              2      40.493    
              3     0.37172E-02

  **  ERROR WHILE EXECUTING UNIT OPERATIONS BLOCK: "COL-REC" (MODEL: "RADFRAC") 
                                                               (STUTRQ2.3)      
      TEMPERATURES CROSS WITH UTILITY WATER-H                                   
      AT REBOILER OF RADFRAC BLOCK COL-REC                                      
      BLOCK TEMPERATURES       4.546034D+02 K AND     4.546040D+02 K            
      UTILITY TEMPERATURES     4.521500D+02 K AND     4.531500D+02 K            

      CONVERGENCE BLOCK $OLVER01  METHOD: SQP                                     TIME =      0.44
      ITER   1 FOR OPTIMIZATION: PUTIRY                                                                                   

  LOOP $OLVER01 ITER    1: DERIVATIVE FOR VAR    4                                TIME =      0.44

      UOS BLOCK COLUMN   MODEL: RADFRAC                                           TIME =      0.44

       Convergence iterations:
           Iter     Err/Tol
              0     0.69330E+06
              1     0.17722E+06
              2      145.39    
              3     0.21823E-01

      UOS BLOCK COL-REC  MODEL: RADFRAC                                           TIME =      0.44

       Convergence iterations:
           Iter     Err/Tol
              0      5367.1    
              1      3145.7    
              2      20.424    
              3     0.15560E-02

  **  ERROR WHILE EXECUTING UNIT OPERATIONS BLOCK: "COL-REC" (MODEL: "RADFRAC") 
                                                               (STUTRQ2.3)      
      TEMPERATURES CROSS WITH UTILITY WATER-H                                   
      AT REBOILER OF RADFRAC BLOCK COL-REC                                      
      BLOCK TEMPERATURES       4.546033D+02 K AND     4.546040D+02 K            
      UTILITY TEMPERATURES     4.521500D+02 K AND     4.531500D+02 K            

      CONVERGENCE BLOCK $OLVER01  METHOD: SQP                                     TIME =      0.45
      ITER   1 FOR OPTIMIZATION: PUTIRY                                                                                   

  LOOP $OLVER01 ITER    1: DERIVATIVE FOR VAR    5                                TIME =      0.45

      UOS BLOCK COLUMN   MODEL: RADFRAC                                           TIME =      0.45

       Convergence iterations:
           Iter     Err/Tol
              0     0.26963E+07
              1      76792.    
              2      19.187    
              3     0.27893E-02

      UOS BLOCK COL-REC  MODEL: RADFRAC                                           TIME =      0.46

       Convergence iterations:
           Iter     Err/Tol
              0      5003.2    
              1      4216.0    
              2      27.675    
              3     0.21828E-02

  **  ERROR WHILE EXECUTING UNIT OPERATIONS BLOCK: "COL-REC" (MODEL: "RADFRAC") 
                                                               (STUTRQ2.3)      
      TEMPERATURES CROSS WITH UTILITY WATER-H                                   
      AT REBOILER OF RADFRAC BLOCK COL-REC                                      
      BLOCK TEMPERATURES       4.546034D+02 K AND     4.546040D+02 K            
      UTILITY TEMPERATURES     4.521500D+02 K AND     4.531500D+02 K            

      CONVERGENCE BLOCK $OLVER01  METHOD: SQP                                     TIME =      0.46
      ITER   1 FOR OPTIMIZATION: PUTIRY                                                                                   

      ITERATIONS =     1     CALLS OF VF02AA =     1

      VF02BD  X               1  0.91000        2  0.40000        3  0.58750        4  0.54500        5  0.71875    

      F =      4.122248246    

      VF02BD  GRADIENT        1 -0.13749E-02    2   2.3809        3   4.5173        4   5.2785        5   7.2198    

      VF02BD  C               1  -111.93        2  -71.222    

      EXIT QP PHASE.   INFORM =  0   ITER =   6

      EXIT QPSOL - OPTIMAL QP SOLUTION.

      FINAL QP OBJECTIVE VALUE =  -0.1000000E+11

      VF02BD  DELTA           1  0.13749E-02    2 -0.20000        3 -0.33750        4 -0.24500        5 -0.34375    
                              6   1.0000    

      VF02BD  VLAM            1   0.0000        2   0.0000    

      *** CVTEST    KKT-QP     KKT-GRAD    NORM(RG)      RG'RD        CMAX
      *** CVTEST    39.08       1.401      0.3335E-03  0.4586E-06   111.9    

      *** LINE SEARCH BASE POINT.  OBJECTIVE FUNCTION =   4.12225    
          LINE SEARCH FUNCTION =   4.12225    

  LOOP $OLVER01 ITER    1: DERIVATIVE FOR VAR    1                                TIME =      0.46

      UOS BLOCK COLUMN   MODEL: RADFRAC                                           TIME =      0.46

       Convergence iterations:
           Iter     Err/Tol
              0     0.26865E+09
              1     0.34849E+09
              2     0.24204E+09
              3     0.84636E+08
              4     0.46830E+07
              5      30596.    
              6      1.7144    
              7     0.41944E-03

      UOS BLOCK COL-REC  MODEL: RADFRAC                                           TIME =      0.48

       Convergence iterations:
           Iter     Err/Tol
              0     0.26405E+06
              1     0.34933E+06
              2     0.41663E+06
              3     0.40108E+06
              4     0.35872E+06
              5     0.33117E+06
              6     0.16371E+07
              7     0.14693E+07
              8     0.14282E+07
              9     0.13462E+07
             10     0.12645E+07
             11     0.10264E+07
             12     0.10449E+07
             13     0.10122E+07
             14     0.80260E+06
             15     0.59119E+06
             16     0.57695E+06
             17     0.16152E+06
             18      39904.    
             19      754.61    
             20      3.1067    
             21     0.14206E-03

      CONVERGENCE BLOCK $OLVER01  METHOD: SQP                                     TIME =      0.51
      ITER   2 FOR OPTIMIZATION: PUTIRY                                                                                   

      *** LINE SEARCH CONVERGED WITH STEP SIZE =   1.00000    
          OBJECTIVE FUNCTION =   1.02710     LINE SEARCH FUNCTION =   1.02710    
      MAGNITUDE OF OPTIMIZATION STEP (SCALED) =     0.11526    

      OPTIMIZATION ITER NO.    1  LINE SEARCH COMPLETED IN  1 STEPS
      STEP SIZE   1.0000      LINE SEARCH FUNCTION   1.0271      OBJECTIVE FUNCTION   1.0271    

  *   WARNING WHILE EXECUTING CONVERGENCE BLOCK: "$OLVER01" (MODEL: "SQP")      
                                                               (OPTIPH.1)       
      IMPROPER STEP-SIZE (1.0000) - DEFAULT (0.01) SUBSTITUTED.                 
      MAGNITUDE OF INEQUALITY CONSTRAINT VIOLATIONS =      283.62    
      NUMBER OF TIGHT INEQUALITY CONSTRAINTS =    0
      NUMBER OF VIOLATED INEQUALITY CONSTRAINTS =    2
      CONSTRAINT   1: MOLE-C7      ERROR =  -0.17858       STATUS = VIOL
      CONSTRAINT   2: MOLE-TOL     ERROR =  -0.53840       STATUS = VIOL

  LOOP $OLVER01 ITER    2: OBJ   0.10E+03 UNCON CONST   3 MAX ERR/TOL   0.10E+06  TIME =       0.51

      UOS BLOCK COLUMN   MODEL: RADFRAC                                           TIME =      0.51

       Convergence iterations:
           Iter     Err/Tol
              0     0.28257E-03

      UOS BLOCK COL-REC  MODEL: RADFRAC                                           TIME =      0.51

       Convergence iterations:
           Iter     Err/Tol
              0     0.40941E-03

      CONVERGENCE BLOCK $OLVER01  METHOD: SQP                                     TIME =      0.51
      ITER   2 FOR OPTIMIZATION: PUTIRY                                                                                   
      MAGNITUDE OF INEQUALITY CONSTRAINT VIOLATIONS =      283.62    
      NUMBER OF TIGHT INEQUALITY CONSTRAINTS =    0
      NUMBER OF VIOLATED INEQUALITY CONSTRAINTS =    2
      CONSTRAINT   1: MOLE-C7      ERROR =  -0.17858       STATUS = VIOL
      CONSTRAINT   2: MOLE-TOL     ERROR =  -0.53840       STATUS = VIOL

  LOOP $OLVER01 ITER    2: OBJ   0.10E+03 UNCON CONST   3 MAX ERR/TOL   0.10E+07  TIME =       0.52

      UOS BLOCK COL-REC  MODEL: RADFRAC                                           TIME =      0.52

       Convergence iterations:
           Iter     Err/Tol
              0      2528.5    
              1      17.798    
              2     0.41785E-02

      CONVERGENCE BLOCK $OLVER01  METHOD: SQP                                     TIME =      0.52
      ITER   2 FOR OPTIMIZATION: PUTIRY                                                                                   

  LOOP $OLVER01 ITER    2: DERIVATIVE FOR VAR    2                                TIME =      0.52

      UOS BLOCK COL-REC  MODEL: RADFRAC                                           TIME =      0.52

       Convergence iterations:
           Iter     Err/Tol
              0      1302.7    
              1      19.810    
              2     0.35057E-02

      CONVERGENCE BLOCK $OLVER01  METHOD: SQP                                     TIME =      0.52
      ITER   2 FOR OPTIMIZATION: PUTIRY                                                                                   

  LOOP $OLVER01 ITER    2: DERIVATIVE FOR VAR    3                                TIME =      0.52

      UOS BLOCK COLUMN   MODEL: RADFRAC                                           TIME =      0.52

       Convergence iterations:
           Iter     Err/Tol
              0     0.30365E+07
              1     0.64762E+06
              2      440.55    
              3     0.25273E-01

      UOS BLOCK COL-REC  MODEL: RADFRAC                                           TIME =      0.53

       Convergence iterations:
           Iter     Err/Tol
              0      6627.6    
              1      83.092    
              2     0.12694E-01

      CONVERGENCE BLOCK $OLVER01  METHOD: SQP                                     TIME =      0.54
      ITER   2 FOR OPTIMIZATION: PUTIRY                                                                                   

  LOOP $OLVER01 ITER    2: DERIVATIVE FOR VAR    4                                TIME =      0.54

      UOS BLOCK COLUMN   MODEL: RADFRAC                                           TIME =      0.54

       Convergence iterations:
           Iter     Err/Tol
              0     0.89319E+06
              1     0.14658E+06
              2      15.143    
              3     0.28559E-02

      UOS BLOCK COL-REC  MODEL: RADFRAC                                           TIME =      0.55

       Convergence iterations:
           Iter     Err/Tol
              0      1614.5    
              1      7.7757    
              2     0.22973E-02

      CONVERGENCE BLOCK $OLVER01  METHOD: SQP                                     TIME =      0.55
      ITER   2 FOR OPTIMIZATION: PUTIRY                                                                                   

  LOOP $OLVER01 ITER    2: DERIVATIVE FOR VAR    5                                TIME =      0.55

      UOS BLOCK COLUMN   MODEL: RADFRAC                                           TIME =      0.55

       Convergence iterations:
           Iter     Err/Tol
              0     0.21794E+07
              1      75940.    
              2      8.4953    
              3     0.19334E-02

      UOS BLOCK COL-REC  MODEL: RADFRAC                                           TIME =      0.56

       Convergence iterations:
           Iter     Err/Tol
              0      4000.8    
              1      139.22    
              2     0.27070E-01

      CONVERGENCE BLOCK $OLVER01  METHOD: SQP                                     TIME =      0.56
      ITER   2 FOR OPTIMIZATION: PUTIRY                                                                                   

      OPTIPH  GRADIENT        1 -0.76841E-01    2  0.98353        3   1.1773        4   2.8961        5   2.7379    

      ITERATIONS =     2     CALLS OF VF02AA =     2

      VF02BD  X               1  0.91137        2  0.20000        3  0.25000        4  0.30000        5  0.37500    

      F =      1.027097873    

      VF02BD  GRADIENT        1 -0.76841E-01    2  0.98353        3   1.1773        4   2.8961        5   2.7379    

      VF02BD  C               1  -178.58        2  -538.40    

      EXIT QP PHASE.   INFORM =  0   ITER =   2

      EXIT QPSOL - OPTIMAL QP SOLUTION.

      FINAL QP OBJECTIVE VALUE =  -0.1000000E+11

      VF02BD  DELTA           1 -0.33818        2   0.0000        3   0.0000        4  0.38038        5  0.28727    
                              6   1.0000    

      VF02BD  VLAM            1   0.0000        2  0.64554E-02

      *** CVTEST    KKT-QP     KKT-GRAD    NORM(RG)      RG'RD        CMAX
      *** CVTEST    2679.       3.712      0.4955      0.1524E-01   538.4    

      *** LINE SEARCH BASE POINT.  OBJECTIVE FUNCTION =   1.02710    
          LINE SEARCH FUNCTION =   4.50267    

  LOOP $OLVER01 ITER    2: DERIVATIVE FOR VAR    1                                TIME =      0.56

      UOS BLOCK COLUMN   MODEL: RADFRAC                                           TIME =      0.56

       Convergence iterations:
           Iter     Err/Tol
              0     0.22709E+09
              1     0.31535E+09
              2     0.63646E+08
              3     0.57329E+07
              4     0.32219E+06
              5      522.14    
              6     0.59747E-01

      UOS BLOCK COL-REC  MODEL: RADFRAC                                           TIME =      0.58

       Convergence iterations:
           Iter     Err/Tol
              0     0.66980E+06
              1     0.27425E+06
              2      17136.    
              3      98.850    
              4     0.20223E-01
              5     0.75945E-05

      CONVERGENCE BLOCK $OLVER01  METHOD: SQP                                     TIME =      0.58
      ITER   3 FOR OPTIMIZATION: PUTIRY                                                                                   

      *** LINE SEARCH CONVERGED WITH STEP SIZE =   1.00000    
          OBJECTIVE FUNCTION =   3.65019     LINE SEARCH FUNCTION =   3.65019    
      MAGNITUDE OF OPTIMIZATION STEP (SCALED) =     0.11689    

      OPTIMIZATION ITER NO.    2  LINE SEARCH COMPLETED IN  1 STEPS
      STEP SIZE   1.0000      LINE SEARCH FUNCTION   3.6502      OBJECTIVE FUNCTION   3.6502    

  *   WARNING WHILE EXECUTING CONVERGENCE BLOCK: "$OLVER01" (MODEL: "SQP")      
                                                               (OPTIPH.1)       
      IMPROPER STEP-SIZE (1.0000) - DEFAULT (0.01) SUBSTITUTED.                 
      MAGNITUDE OF INEQUALITY CONSTRAINT VIOLATIONS =      18.737    
      NUMBER OF TIGHT INEQUALITY CONSTRAINTS =    0
      NUMBER OF VIOLATED INEQUALITY CONSTRAINTS =    1
      CONSTRAINT   1: MOLE-C7      ERROR =  -0.37474E-01   STATUS = VIOL
      CONSTRAINT   2: MOLE-TOL     ERROR =   0.18605E-01   STATUS = INAC

  LOOP $OLVER01 ITER    3: OBJ   0.37E+03 UNCON CONST   2 MAX ERR/TOL   0.26E+04  TIME =       0.59

      UOS BLOCK COLUMN   MODEL: RADFRAC                                           TIME =      0.59

       Convergence iterations:
           Iter     Err/Tol
              0     0.22853E-01
              1     0.20429E-04

      UOS BLOCK COL-REC  MODEL: RADFRAC                                           TIME =      0.59

       Convergence iterations:
           Iter     Err/Tol
              0     0.12186E-04

      CONVERGENCE BLOCK $OLVER01  METHOD: SQP                                     TIME =      0.59
      ITER   3 FOR OPTIMIZATION: PUTIRY                                                                                   
      MAGNITUDE OF INEQUALITY CONSTRAINT VIOLATIONS =      18.737    
      NUMBER OF TIGHT INEQUALITY CONSTRAINTS =    0
      NUMBER OF VIOLATED INEQUALITY CONSTRAINTS =    1
      CONSTRAINT   1: MOLE-C7      ERROR =  -0.37474E-01   STATUS = VIOL
      CONSTRAINT   2: MOLE-TOL     ERROR =   0.18605E-01   STATUS = INAC

  LOOP $OLVER01 ITER    3: OBJ   0.37E+03 UNCON CONST   2 MAX ERR/TOL   0.26E+04  TIME =       0.59

      UOS BLOCK COL-REC  MODEL: RADFRAC                                           TIME =      0.59

       Convergence iterations:
           Iter     Err/Tol
              0      4957.2    
              1      17.361    
              2     0.74805E-02

      CONVERGENCE BLOCK $OLVER01  METHOD: SQP                                     TIME =      0.60
      ITER   3 FOR OPTIMIZATION: PUTIRY                                                                                   

  LOOP $OLVER01 ITER    3: DERIVATIVE FOR VAR    2                                TIME =      0.60

      UOS BLOCK COL-REC  MODEL: RADFRAC                                           TIME =      0.60

       Convergence iterations:
           Iter     Err/Tol
              0      2469.5    
              1      20.793    
              2     0.68305E-02

      CONVERGENCE BLOCK $OLVER01  METHOD: SQP                                     TIME =      0.60
      ITER   3 FOR OPTIMIZATION: PUTIRY                                                                                   

  LOOP $OLVER01 ITER    3: DERIVATIVE FOR VAR    3                                TIME =      0.60

      UOS BLOCK COLUMN   MODEL: RADFRAC                                           TIME =      0.60

       Convergence iterations:
           Iter     Err/Tol
              0     0.18422E+07
              1      8647.3    
              2      1.2400    
              3     0.50832E-04

      UOS BLOCK COL-REC  MODEL: RADFRAC                                           TIME =      0.61

       Convergence iterations:
           Iter     Err/Tol
              0      4761.5    
              1      20.749    
              2     0.40751E-02

      CONVERGENCE BLOCK $OLVER01  METHOD: SQP                                     TIME =      0.61
      ITER   3 FOR OPTIMIZATION: PUTIRY                                                                                   

  LOOP $OLVER01 ITER    3: DERIVATIVE FOR VAR    4                                TIME =      0.61

      UOS BLOCK COLUMN   MODEL: RADFRAC                                           TIME =      0.61

       Convergence iterations:
           Iter     Err/Tol
              0     0.65422E+06
              1     0.99774E+06
              2      12095.    
              3      1.4745    
              4     0.15812E-03

      UOS BLOCK COL-REC  MODEL: RADFRAC                                           TIME =      0.62

       Convergence iterations:
           Iter     Err/Tol
              0      5306.2    
              1      15.637    
              2     0.67251E-02

      CONVERGENCE BLOCK $OLVER01  METHOD: SQP                                     TIME =      0.63
      ITER   3 FOR OPTIMIZATION: PUTIRY                                                                                   

  LOOP $OLVER01 ITER    3: DERIVATIVE FOR VAR    5                                TIME =      0.63

      UOS BLOCK COLUMN   MODEL: RADFRAC                                           TIME =      0.63

       Convergence iterations:
           Iter     Err/Tol
              0     0.31992E+07
              1     0.10513E+07
              2      9793.7    
              3      1.0576    
              4     0.10287E-03

      UOS BLOCK COL-REC  MODEL: RADFRAC                                           TIME =      0.64

       Convergence iterations:
           Iter     Err/Tol
              0      1552.8    
              1      2.7777    
              2     0.49373E-03

      CONVERGENCE BLOCK $OLVER01  METHOD: SQP                                     TIME =      0.64
      ITER   3 FOR OPTIMIZATION: PUTIRY                                                                                   

      OPTIPH  GRADIENT        1 -0.20004E-02    2  0.96205        3   1.0603        4   4.8516        5   5.3267    

      ITERATIONS =     3     CALLS OF VF02AA =     3

      VF02BD  X               1  0.57319        2  0.20000        3  0.25000        4  0.68038        5  0.66227    

      F =      3.650193117    

      VF02BD  GRADIENT        1 -0.20004E-02    2  0.96205        3   1.0603        4   4.8516        5   5.3267    

      VF02BD  C               1  -37.474        2   18.605    

      EXIT QP PHASE.   INFORM =  0   ITER =   2

      EXIT QPSOL - OPTIMAL QP SOLUTION.

      FINAL QP OBJECTIVE VALUE =  -0.1000000E+11

      VF02BD  DELTA           1  0.96763E-02    2   0.0000        3   0.0000        4 -0.38038        5 -0.91836E-01
                              6   1.0000    

      VF02BD  VLAM            1   0.0000        2   0.0000    

      *** CVTEST    KKT-QP     KKT-GRAD    NORM(RG)      RG'RD        CMAX
      *** CVTEST   0.6396      0.6396       1.459      0.1340       37.47    

      *** LINE SEARCH BASE POINT.  OBJECTIVE FUNCTION =   3.65019    
          LINE SEARCH FUNCTION =   3.65019    

  LOOP $OLVER01 ITER    3: DERIVATIVE FOR VAR    1                                TIME =      0.65

      UOS BLOCK COLUMN   MODEL: RADFRAC                                           TIME =      0.65

       Convergence iterations:
           Iter     Err/Tol
              0     0.21756E+09
              1     0.18476E+09
              2     0.15273E+09
              3     0.19970E+09
              4     0.63007E+08
              5     0.37848E+07
              6      28346.    
              7      3.6650    
              8     0.47689E-03

      UOS BLOCK COL-REC  MODEL: RADFRAC                                           TIME =      0.66

       Convergence iterations:
           Iter     Err/Tol
              0     0.22541E+06
              1     0.19419E+06
              2      5153.4    
              3      6.5958    
              4     0.23392E-03

      CONVERGENCE BLOCK $OLVER01  METHOD: SQP                                     TIME =      0.67
      ITER   4 FOR OPTIMIZATION: PUTIRY                                                                                   

      *** LINE SEARCH CONVERGED WITH STEP SIZE =   1.00000    
          OBJECTIVE FUNCTION =   1.56571     LINE SEARCH FUNCTION =   2.53901    
      MAGNITUDE OF OPTIMIZATION STEP (SCALED) =     0.78285E-01

      OPTIMIZATION ITER NO.    3  LINE SEARCH COMPLETED IN  1 STEPS
      STEP SIZE   1.0000      LINE SEARCH FUNCTION   2.5390      OBJECTIVE FUNCTION   1.5657    

  *   WARNING WHILE EXECUTING CONVERGENCE BLOCK: "$OLVER01" (MODEL: "SQP")      
                                                               (OPTIPH.1)       
      IMPROPER STEP-SIZE (1.0000) - DEFAULT (0.01) SUBSTITUTED.                 
      MAGNITUDE OF INEQUALITY CONSTRAINT VIOLATIONS =      159.84    
      NUMBER OF TIGHT INEQUALITY CONSTRAINTS =    0
      NUMBER OF VIOLATED INEQUALITY CONSTRAINTS =    2
      CONSTRAINT   1: MOLE-C7      ERROR =  -0.10614       STATUS = VIOL
      CONSTRAINT   2: MOLE-TOL     ERROR =  -0.30155       STATUS = VIOL

  LOOP $OLVER01 ITER    4: OBJ   0.16E+03 UNCON CONST   3 MAX ERR/TOL   0.57E+03  TIME =       0.67

      UOS BLOCK COLUMN   MODEL: RADFRAC                                           TIME =      0.67

       Convergence iterations:
           Iter     Err/Tol
              0     0.25703E-03

      UOS BLOCK COL-REC  MODEL: RADFRAC                                           TIME =      0.67

       Convergence iterations:
           Iter     Err/Tol
              0     0.25502E-03

      CONVERGENCE BLOCK $OLVER01  METHOD: SQP                                     TIME =      0.67
      ITER   4 FOR OPTIMIZATION: PUTIRY                                                                                   
      MAGNITUDE OF INEQUALITY CONSTRAINT VIOLATIONS =      159.84    
      NUMBER OF TIGHT INEQUALITY CONSTRAINTS =    0
      NUMBER OF VIOLATED INEQUALITY CONSTRAINTS =    2
      CONSTRAINT   1: MOLE-C7      ERROR =  -0.10614       STATUS = VIOL
      CONSTRAINT   2: MOLE-TOL     ERROR =  -0.30155       STATUS = VIOL

  LOOP $OLVER01 ITER    4: OBJ   0.16E+03 UNCON CONST   3 MAX ERR/TOL   0.57E+03  TIME =       0.67

      UOS BLOCK COL-REC  MODEL: RADFRAC                                           TIME =      0.67

       Convergence iterations:
           Iter     Err/Tol
              0      4413.0    
              1      13.514    
              2     0.46995E-02

      CONVERGENCE BLOCK $OLVER01  METHOD: SQP                                     TIME =      0.68
      ITER   4 FOR OPTIMIZATION: PUTIRY                                                                                   

  LOOP $OLVER01 ITER    4: DERIVATIVE FOR VAR    2                                TIME =      0.68

      UOS BLOCK COL-REC  MODEL: RADFRAC                                           TIME =      0.68

       Convergence iterations:
           Iter     Err/Tol
              0      2014.2    
              1      23.349    
              2     0.43652E-02

      CONVERGENCE BLOCK $OLVER01  METHOD: SQP                                     TIME =      0.68
      ITER   4 FOR OPTIMIZATION: PUTIRY                                                                                   

  LOOP $OLVER01 ITER    4: DERIVATIVE FOR VAR    3                                TIME =      0.68

      UOS BLOCK COLUMN   MODEL: RADFRAC                                           TIME =      0.68

       Convergence iterations:
           Iter     Err/Tol
              0     0.36275E+07
              1     0.34141E+06
              2      123.11    
              3     0.15501E-01

      UOS BLOCK COL-REC  MODEL: RADFRAC                                           TIME =      0.69

       Convergence iterations:
           Iter     Err/Tol
              0      8552.4    
              1      233.21    
              2     0.15682E-01

      CONVERGENCE BLOCK $OLVER01  METHOD: SQP                                     TIME =      0.70
      ITER   4 FOR OPTIMIZATION: PUTIRY                                                                                   

  LOOP $OLVER01 ITER    4: DERIVATIVE FOR VAR    4                                TIME =      0.70

      UOS BLOCK COLUMN   MODEL: RADFRAC                                           TIME =      0.70

       Convergence iterations:
           Iter     Err/Tol
              0     0.58963E+07
              1     0.53832E+06
              2      216.52    
              3     0.30229E-01

      UOS BLOCK COL-REC  MODEL: RADFRAC                                           TIME =      0.71

       Convergence iterations:
           Iter     Err/Tol
              0      17893.    
              1      1179.1    
              2     0.91600E-01
              3     0.35962E-04

      CONVERGENCE BLOCK $OLVER01  METHOD: SQP                                     TIME =      0.71
      ITER   4 FOR OPTIMIZATION: PUTIRY                                                                                   

  LOOP $OLVER01 ITER    4: DERIVATIVE FOR VAR    5                                TIME =      0.71

      UOS BLOCK COLUMN   MODEL: RADFRAC                                           TIME =      0.71

       Convergence iterations:
           Iter     Err/Tol
              0     0.33678E+07
              1      28113.    
              2      4.3395    
              3     0.42696E-03

      UOS BLOCK COL-REC  MODEL: RADFRAC                                           TIME =      0.72

       Convergence iterations:
           Iter     Err/Tol
              0      11851.    
              1      274.75    
              2     0.12251E-01

      CONVERGENCE BLOCK $OLVER01  METHOD: SQP                                     TIME =      0.72
      ITER   4 FOR OPTIMIZATION: PUTIRY                                                                                   

      OPTIPH  GRADIENT        1 -0.58149E-02    2  0.97414        3   1.1281        4   4.2470        5   2.6326    

      ITERATIONS =     4     CALLS OF VF02AA =     4

      VF02BD  X               1  0.58287        2  0.20000        3  0.25000        4  0.30000        5  0.57043    

      F =      1.565712475    

      VF02BD  GRADIENT        1 -0.58149E-02    2  0.97414        3   1.1281        4   4.2470        5   2.6326    

      VF02BD  C               1  -106.14        2  -301.55    

      EXIT QP PHASE.   INFORM =  0   ITER =   1

      EXIT QPSOL - OPTIMAL QP SOLUTION.

      FINAL QP OBJECTIVE VALUE =  -0.1000000E+11

      VF02BD  DELTA           1  0.26227        2   0.0000        3   0.0000        4  0.99695E-01    5  0.79992E-01
                              6   1.0000    

      VF02BD  VLAM            1  0.85431E-03    2  0.25855E-02

      *** CVTEST    KKT-QP     KKT-GRAD    NORM(RG)      RG'RD        CMAX
      *** CVTEST    418.1      0.8345      0.1035      0.2659E-01   301.5    

      *** LINE SEARCH BASE POINT.  OBJECTIVE FUNCTION =   1.56571    
          LINE SEARCH FUNCTION =   2.53287    

  LOOP $OLVER01 ITER    4: DERIVATIVE FOR VAR    1                                TIME =      0.72

      UOS BLOCK COLUMN   MODEL: RADFRAC                                           TIME =      0.72

       Convergence iterations:
           Iter     Err/Tol
              0     0.34204E+08
              1     0.20969E+08
              2     0.31389E+08
              3     0.15095E+08
              4     0.56756E+06
              5      295.98    
              6     0.93486E-01

      UOS BLOCK COL-REC  MODEL: RADFRAC                                           TIME =      0.74

       Convergence iterations:
           Iter     Err/Tol
              0      91314.    
              1      60974.    
              2      64495.    
              3      564.73    
              4     0.15697    
              5     0.54265E-04

      CONVERGENCE BLOCK $OLVER01  METHOD: SQP                                     TIME =      0.74
      ITER   5 FOR OPTIMIZATION: PUTIRY                                                                                   

      *** LINE SEARCH CONVERGED WITH STEP SIZE =   1.00000    
          OBJECTIVE FUNCTION =   2.24915     LINE SEARCH FUNCTION =   2.29714    
      MAGNITUDE OF OPTIMIZATION STEP (SCALED) =     0.58352E-01

      OPTIMIZATION ITER NO.    4  LINE SEARCH COMPLETED IN  1 STEPS
      STEP SIZE   1.0000      LINE SEARCH FUNCTION   2.2971      OBJECTIVE FUNCTION   2.2491    

  *   WARNING WHILE EXECUTING CONVERGENCE BLOCK: "$OLVER01" (MODEL: "SQP")      
                                                               (OPTIPH.1)       
      IMPROPER STEP-SIZE (1.0000) - DEFAULT (0.01) SUBSTITUTED.                 
      MAGNITUDE OF INEQUALITY CONSTRAINT VIOLATIONS =      18.226    
      NUMBER OF TIGHT INEQUALITY CONSTRAINTS =    0
      NUMBER OF VIOLATED INEQUALITY CONSTRAINTS =    2
      CONSTRAINT   1: MOLE-C7      ERROR =  -0.35964E-01   STATUS = VIOL
      CONSTRAINT   2: MOLE-TOL     ERROR =  -0.59416E-02   STATUS = VIOL

  LOOP $OLVER01 ITER    5: OBJ   0.22E+03 UNCON CONST   3 MAX ERR/TOL   0.44E+03  TIME =       0.75

      UOS BLOCK COLUMN   MODEL: RADFRAC                                           TIME =      0.75

       Convergence iterations:
           Iter     Err/Tol
              0     0.79445E-01
              1     0.22395E-04

      UOS BLOCK COL-REC  MODEL: RADFRAC                                           TIME =      0.75

       Convergence iterations:
           Iter     Err/Tol
              0     0.99008E-04

      CONVERGENCE BLOCK $OLVER01  METHOD: SQP                                     TIME =      0.75
      ITER   5 FOR OPTIMIZATION: PUTIRY                                                                                   
      MAGNITUDE OF INEQUALITY CONSTRAINT VIOLATIONS =      18.226    
      NUMBER OF TIGHT INEQUALITY CONSTRAINTS =    0
      NUMBER OF VIOLATED INEQUALITY CONSTRAINTS =    2
      CONSTRAINT   1: MOLE-C7      ERROR =  -0.35964E-01   STATUS = VIOL
      CONSTRAINT   2: MOLE-TOL     ERROR =  -0.59416E-02   STATUS = VIOL

  LOOP $OLVER01 ITER    5: OBJ   0.22E+03 UNCON CONST   3 MAX ERR/TOL   0.44E+03  TIME =       0.75

      UOS BLOCK COL-REC  MODEL: RADFRAC                                           TIME =      0.75

       Convergence iterations:
           Iter     Err/Tol
              0      4267.6    
              1      32.226    
              2     0.92379E-02

      CONVERGENCE BLOCK $OLVER01  METHOD: SQP                                     TIME =      0.76
      ITER   5 FOR OPTIMIZATION: PUTIRY                                                                                   

  LOOP $OLVER01 ITER    5: DERIVATIVE FOR VAR    2                                TIME =      0.76

      UOS BLOCK COL-REC  MODEL: RADFRAC                                           TIME =      0.76

       Convergence iterations:
           Iter     Err/Tol
              0      2214.4    
              1      27.928    
              2     0.80179E-02

      CONVERGENCE BLOCK $OLVER01  METHOD: SQP                                     TIME =      0.76
      ITER   5 FOR OPTIMIZATION: PUTIRY                                                                                   

  LOOP $OLVER01 ITER    5: DERIVATIVE FOR VAR    3                                TIME =      0.76

      UOS BLOCK COLUMN   MODEL: RADFRAC                                           TIME =      0.76

       Convergence iterations:
           Iter     Err/Tol
              0     0.35721E+07
              1     0.29862E+06
              2      131.11    
[...]

      OPTIMIZATION ITER NO.   10: LINE SEARCH STEP NUMBER 4

      STEP SIZE  0.90000E-01  LINE SEARCH FUNCTION   2.4057      OBJECTIVE FUNCTION   2.3957    
      MAGNITUDE OF INEQUALITY CONSTRAINT VIOLATIONS =      0.0000    
      NUMBER OF TIGHT INEQUALITY CONSTRAINTS =    2
      NUMBER OF VIOLATED INEQUALITY CONSTRAINTS =    0
      CONSTRAINT   1: MOLE-C7      ERROR =  -0.49561E-03   STATUS = ACT 
      CONSTRAINT   2: MOLE-TOL     ERROR =  -0.89458E-03   STATUS = ACT 

  LOOP $OLVER01 ITER   11: OBJ   0.24E+03 UNCON CONST   0 MAX ERR/TOL   0.35E-01  TIME =       1.38

      UOS BLOCK COLUMN   MODEL: RADFRAC                                           TIME =      1.38

       Convergence iterations:
           Iter     Err/Tol
              0     0.12980E+06
              1      233.80    
              2     0.28107E-01

      UOS BLOCK COL-REC  MODEL: RADFRAC                                           TIME =      1.39

       Convergence iterations:
           Iter     Err/Tol
              0      201.89    
              1     0.30002E-01
              2     0.13750E-04

      CONVERGENCE BLOCK $OLVER01  METHOD: SQP                                     TIME =      1.39
      ITER  11 FOR OPTIMIZATION: PUTIRY                                                                                   

      *** LINE SEARCH POINT   4 STEP SIZE =  0.270000E-01
          OBJECTIVE FUNCTION =   2.39505     LINE SEARCH FUNCTION =   2.40566    

      OPTIMIZATION ITER NO.   10: LINE SEARCH STEP NUMBER 5

      STEP SIZE  0.27000E-01  LINE SEARCH FUNCTION   2.4057      OBJECTIVE FUNCTION   2.3950    
      MAGNITUDE OF INEQUALITY CONSTRAINT VIOLATIONS =      0.0000    
      NUMBER OF TIGHT INEQUALITY CONSTRAINTS =    2
      NUMBER OF VIOLATED INEQUALITY CONSTRAINTS =    0
      CONSTRAINT   1: MOLE-C7      ERROR =  -0.52549E-03   STATUS = ACT 
      CONSTRAINT   2: MOLE-TOL     ERROR =  -0.94964E-03   STATUS = ACT 

  LOOP $OLVER01 ITER   11: OBJ   0.24E+03 UNCON CONST   0 MAX ERR/TOL   0.35E-01  TIME =       1.39

      UOS BLOCK COLUMN   MODEL: RADFRAC                                           TIME =      1.39

       Convergence iterations:
           Iter     Err/Tol
              0      38940.    
              1      22.632    
              2     0.28057E-02

      UOS BLOCK COL-REC  MODEL: RADFRAC                                           TIME =      1.40

       Convergence iterations:
           Iter     Err/Tol
              0      60.580    
              1     0.95588E-02

      CONVERGENCE BLOCK $OLVER01  METHOD: SQP                                     TIME =      1.40
      ITER  11 FOR OPTIMIZATION: PUTIRY                                                                                   

      VF02AA WARNING:  LINE SEARCH REQUIRES   5 CALLS
      MAGNITUDE OF OPTIMIZATION STEP (SCALED) =     0.72365E-05

      OPTIMIZATION ITER NO.   10 LINE SEARCH  NOT COMPLETED IN  5 STEPS

      STEP SIZE  0.81000E-02  LINE SEARCH FUNCTION   2.4056      OBJECTIVE FUNCTION   2.3949    

  *   WARNING WHILE EXECUTING CONVERGENCE BLOCK: "$OLVER01" (MODEL: "SQP")      
                                                               (OPTIPH.1)       
      IMPROPER STEP-SIZE (1.0000) - DEFAULT (0.01) SUBSTITUTED.                 
      MAGNITUDE OF INEQUALITY CONSTRAINT VIOLATIONS =      0.0000    
      NUMBER OF TIGHT INEQUALITY CONSTRAINTS =    2
      NUMBER OF VIOLATED INEQUALITY CONSTRAINTS =    0
      CONSTRAINT   1: MOLE-C7      ERROR =  -0.53448E-03   STATUS = ACT 
      CONSTRAINT   2: MOLE-TOL     ERROR =  -0.96619E-03   STATUS = ACT 

  LOOP $OLVER01 ITER   11: OBJ   0.24E+03 UNCON CONST   0 MAX ERR/TOL   0.35E-01  TIME =       1.41

      UOS BLOCK COLUMN   MODEL: RADFRAC                                           TIME =      1.41

       Convergence iterations:
           Iter     Err/Tol
              0     0.16590E-02

      UOS BLOCK COL-REC  MODEL: RADFRAC                                           TIME =      1.41

       Convergence iterations:
           Iter     Err/Tol
              0     0.20158E-01
              1     0.52402E-05

      CONVERGENCE BLOCK $OLVER01  METHOD: SQP                                     TIME =      1.41
      ITER  11 FOR OPTIMIZATION: PUTIRY                                                                                   
      MAGNITUDE OF INEQUALITY CONSTRAINT VIOLATIONS =      0.0000    
      NUMBER OF TIGHT INEQUALITY CONSTRAINTS =    2
      NUMBER OF VIOLATED INEQUALITY CONSTRAINTS =    0
      CONSTRAINT   1: MOLE-C7      ERROR =  -0.53448E-03   STATUS = ACT 
      CONSTRAINT   2: MOLE-TOL     ERROR =  -0.96619E-03   STATUS = ACT 

  LOOP $OLVER01 ITER   11: OBJ   0.24E+03 UNCON CONST   0 MAX ERR/TOL   0.35E-01  TIME =       1.41

      UOS BLOCK COL-REC  MODEL: RADFRAC                                           TIME =      1.41

       Convergence iterations:
           Iter     Err/Tol
              0      4326.6    
              1      26.613    
              2     0.83232E-02

      CONVERGENCE BLOCK $OLVER01  METHOD: SQP                                     TIME =      1.42
      ITER  11 FOR OPTIMIZATION: PUTIRY                                                                                   

  LOOP $OLVER01 ITER   11: DERIVATIVE FOR VAR    2                                TIME =      1.42

      UOS BLOCK COL-REC  MODEL: RADFRAC                                           TIME =      1.42

       Convergence iterations:
           Iter     Err/Tol
              0      2200.0    
              1      23.304    
              2     0.64595E-02

      CONVERGENCE BLOCK $OLVER01  METHOD: SQP                                     TIME =      1.42
      ITER  11 FOR OPTIMIZATION: PUTIRY                                                                                   

  LOOP $OLVER01 ITER   11: DERIVATIVE FOR VAR    3                                TIME =      1.42

      UOS BLOCK COLUMN   MODEL: RADFRAC                                           TIME =      1.42

       Convergence iterations:
           Iter     Err/Tol
              0     0.34677E+07
              1     0.46437E+06
              2      791.21    
              3     0.12161    

      UOS BLOCK COL-REC  MODEL: RADFRAC                                           TIME =      1.43

       Convergence iterations:
           Iter     Err/Tol
              0      5657.9    
              1      24.862    
              2     0.40471E-02

      CONVERGENCE BLOCK $OLVER01  METHOD: SQP                                     TIME =      1.43
      ITER  11 FOR OPTIMIZATION: PUTIRY                                                                                   

  LOOP $OLVER01 ITER   11: DERIVATIVE FOR VAR    4                                TIME =      1.43

      UOS BLOCK COLUMN   MODEL: RADFRAC                                           TIME =      1.43

       Convergence iterations:
           Iter     Err/Tol
              0     0.11566E+07
              1     0.43467E+07
              2      88784.    
              3      114.61    
              4     0.12829E-01

      UOS BLOCK COL-REC  MODEL: RADFRAC                                           TIME =      1.45

       Convergence iterations:
           Iter     Err/Tol
              0      1606.4    
              1      70.390    
              2     0.74552E-02

      CONVERGENCE BLOCK $OLVER01  METHOD: SQP                                     TIME =      1.45
      ITER  11 FOR OPTIMIZATION: PUTIRY                                                                                   

  LOOP $OLVER01 ITER   11: DERIVATIVE FOR VAR    5                                TIME =      1.45

      UOS BLOCK COLUMN   MODEL: RADFRAC                                           TIME =      1.45

       Convergence iterations:
           Iter     Err/Tol
              0     0.41147E+07
              1     0.22699E+07
              2      45318.    
              3      19.543    
              4     0.44023E-02

      UOS BLOCK COL-REC  MODEL: RADFRAC                                           TIME =      1.46

       Convergence iterations:
           Iter     Err/Tol
              0      6436.7    
              1      142.43    
              2     0.97071E-02

      CONVERGENCE BLOCK $OLVER01  METHOD: SQP                                     TIME =      1.47
      ITER  11 FOR OPTIMIZATION: PUTIRY                                                                                   

      OPTIPH  GRADIENT        1 -0.54251E-02    2  0.96332        3   1.0549        4   4.6114        5   3.5770    

      ITERATIONS =    11     CALLS OF VF02AA =    22

      VF02BD  X               1  0.80457        2  0.20000        3  0.25000        4  0.44619        5  0.62909    

      F =      2.394852338    

      VF02BD  GRADIENT        1 -0.54251E-02    2  0.96332        3   1.0549        4   4.6114        5   3.5770    

      VF02BD  C               1 -0.53448        2 -0.96619    

      EXIT QP PHASE.   INFORM =  0   ITER =   1

      EXIT QPSOL - OPTIMAL QP SOLUTION.

      FINAL QP OBJECTIVE VALUE =  -0.1000000E+11

      VF02BD  DELTA           1 -0.35755E-02    2   0.0000        3   0.0000        4  0.21572E-02    5  0.78232E-04
                              6   1.0000    

      VF02BD  VLAM            1  0.86006E-02    2  0.64303E-02

      *** CVTEST    KKT-QP     KKT-GRAD    NORM(RG)      RG'RD        CMAX
      *** CVTEST   0.4789      0.8560E-02  0.7032E-03  0.2506E-05  0.9662    

      *** LINE SEARCH BASE POINT.  OBJECTIVE FUNCTION =   2.39485    
          LINE SEARCH FUNCTION =   2.40566    

  LOOP $OLVER01 ITER   11: DERIVATIVE FOR VAR    1                                TIME =      1.47

      UOS BLOCK COLUMN   MODEL: RADFRAC                                           TIME =      1.47

       Convergence iterations:
           Iter     Err/Tol
              0     0.52767E+06
              1      27712.    
              2      6.1389    
              3     0.12118E-02

      UOS BLOCK COL-REC  MODEL: RADFRAC                                           TIME =      1.48

       Convergence iterations:
           Iter     Err/Tol
              0      1059.3    
              1      2.3423    
              2     0.30334E-03

      CONVERGENCE BLOCK $OLVER01  METHOD: SQP                                     TIME =      1.48
      ITER  12 FOR OPTIMIZATION: PUTIRY                                                                                   

      *** LINE SEARCH POINT   1 STEP SIZE =   1.00000    
          OBJECTIVE FUNCTION =   2.40510     LINE SEARCH FUNCTION =   2.40651    

      OPTIMIZATION ITER NO.   11: LINE SEARCH STEP NUMBER 2

      STEP SIZE   1.0000      LINE SEARCH FUNCTION   2.4065      OBJECTIVE FUNCTION   2.4051    
      MAGNITUDE OF INEQUALITY CONSTRAINT VIOLATIONS =      0.0000    
      NUMBER OF TIGHT INEQUALITY CONSTRAINTS =    2
      NUMBER OF VIOLATED INEQUALITY CONSTRAINTS =    0
      CONSTRAINT   1: MOLE-C7      ERROR =  -0.76447E-04   STATUS = ACT 
      CONSTRAINT   2: MOLE-TOL     ERROR =  -0.11699E-03   STATUS = ACT 

  LOOP $OLVER01 ITER   12: OBJ   0.24E+03 UNCON CONST   0 MAX ERR/TOL   0.35E-01  TIME =       1.48

      UOS BLOCK COLUMN   MODEL: RADFRAC                                           TIME =      1.49

       Convergence iterations:
           Iter     Err/Tol
              0     0.13802E+07
              1      26952.    
              2      5.3103    
              3     0.17164E-02

      UOS BLOCK COL-REC  MODEL: RADFRAC                                           TIME =      1.50

       Convergence iterations:
           Iter     Err/Tol
              0      2081.6    
              1     0.94990    
              2     0.39837E-03

      CONVERGENCE BLOCK $OLVER01  METHOD: SQP                                     TIME =      1.50
      ITER  12 FOR OPTIMIZATION: PUTIRY                                                                                   

      *** LINE SEARCH POINT   2 STEP SIZE =  0.300000    
          OBJECTIVE FUNCTION =   2.39793     LINE SEARCH FUNCTION =   2.40586    

      OPTIMIZATION ITER NO.   11: LINE SEARCH STEP NUMBER 3

      STEP SIZE  0.30000      LINE SEARCH FUNCTION   2.4059      OBJECTIVE FUNCTION   2.3979    
      MAGNITUDE OF INEQUALITY CONSTRAINT VIOLATIONS =      0.0000    
      NUMBER OF TIGHT INEQUALITY CONSTRAINTS =    2
      NUMBER OF VIOLATED INEQUALITY CONSTRAINTS =    0
      CONSTRAINT   1: MOLE-C7      ERROR =  -0.39395E-03   STATUS = ACT 
      CONSTRAINT   2: MOLE-TOL     ERROR =  -0.70699E-03   STATUS = ACT 

  LOOP $OLVER01 ITER   12: OBJ   0.24E+03 UNCON CONST   0 MAX ERR/TOL   0.35E-01  TIME =       1.50

      UOS BLOCK COLUMN   MODEL: RADFRAC                                           TIME =      1.50

       Convergence iterations:
           Iter     Err/Tol
              0     0.41401E+06
              1      2449.0    
              2     0.30803    

      UOS BLOCK COL-REC  MODEL: RADFRAC                                           TIME =      1.51

       Convergence iterations:
           Iter     Err/Tol
              0      626.06    
              1     0.10363    
              2     0.14573E-04

      CONVERGENCE BLOCK $OLVER01  METHOD: SQP                                     TIME =      1.51
      ITER  12 FOR OPTIMIZATION: PUTIRY                                                                                   

      *** LINE SEARCH POINT   3 STEP SIZE =  0.900000E-01
          OBJECTIVE FUNCTION =   2.39577     LINE SEARCH FUNCTION =   2.40572    

      OPTIMIZATION ITER NO.   11: LINE SEARCH STEP NUMBER 4

      STEP SIZE  0.90000E-01  LINE SEARCH FUNCTION   2.4057      OBJECTIVE FUNCTION   2.3958    
      MAGNITUDE OF INEQUALITY CONSTRAINT VIOLATIONS =      0.0000    
      NUMBER OF TIGHT INEQUALITY CONSTRAINTS =    2
      NUMBER OF VIOLATED INEQUALITY CONSTRAINTS =    0
      CONSTRAINT   1: MOLE-C7      ERROR =  -0.49203E-03   STATUS = ACT 
      CONSTRAINT   2: MOLE-TOL     ERROR =  -0.88803E-03   STATUS = ACT 

  LOOP $OLVER01 ITER   12: OBJ   0.24E+03 UNCON CONST   0 MAX ERR/TOL   0.35E-01  TIME =       1.51

      UOS BLOCK COLUMN   MODEL: RADFRAC                                           TIME =      1.51

       Convergence iterations:
           Iter     Err/Tol
              0     0.12420E+06
              1      223.22    
              2     0.26755E-01

      UOS BLOCK COL-REC  MODEL: RADFRAC                                           TIME =      1.52

       Convergence iterations:
           Iter     Err/Tol
              0      187.97    
              1     0.26879E-01
              2     0.12443E-04

      CONVERGENCE BLOCK $OLVER01  METHOD: SQP                                     TIME =      1.52
      ITER  12 FOR OPTIMIZATION: PUTIRY                                                                                   

      *** LINE SEARCH POINT   4 STEP SIZE =  0.270000E-01
          OBJECTIVE FUNCTION =   2.39513     LINE SEARCH FUNCTION =   2.40568    

      OPTIMIZATION ITER NO.   11: LINE SEARCH STEP NUMBER 5

      STEP SIZE  0.27000E-01  LINE SEARCH FUNCTION   2.4057      OBJECTIVE FUNCTION   2.3951    
      MAGNITUDE OF INEQUALITY CONSTRAINT VIOLATIONS =      0.0000    
      NUMBER OF TIGHT INEQUALITY CONSTRAINTS =    2
      NUMBER OF VIOLATED INEQUALITY CONSTRAINTS =    0
      CONSTRAINT   1: MOLE-C7      ERROR =  -0.52172E-03   STATUS = ACT 
      CONSTRAINT   2: MOLE-TOL     ERROR =  -0.94270E-03   STATUS = ACT 

  LOOP $OLVER01 ITER   12: OBJ   0.24E+03 UNCON CONST   0 MAX ERR/TOL   0.35E-01  TIME =       1.52

      UOS BLOCK COLUMN   MODEL: RADFRAC                                           TIME =      1.52

       Convergence iterations:
           Iter     Err/Tol
              0      37259.    
              1      21.712    
              2     0.26947E-02

      UOS BLOCK COL-REC  MODEL: RADFRAC                                           TIME =      1.53

       Convergence iterations:
           Iter     Err/Tol
              0      56.404    
              1     0.85135E-02

      CONVERGENCE BLOCK $OLVER01  METHOD: SQP                                     TIME =      1.53
      ITER  12 FOR OPTIMIZATION: PUTIRY                                                                                   

      VF02AA WARNING:  LINE SEARCH REQUIRES   5 CALLS

      THE PRINTING OF THE LAST ITERATION GIVES THE VALUES
      THAT ARE RETURNED BY SUBROUTINE VF02AA
      MAGNITUDE OF OPTIMIZATION STEP (SCALED) =     0.67661E-05

      OPTIMIZATION ITER NO.   11 LINE SEARCH  NOT COMPLETED IN  5 STEPS

      STEP SIZE  0.81000E-02  LINE SEARCH FUNCTION   2.4057      OBJECTIVE FUNCTION   2.3949    

  *   WARNING WHILE EXECUTING CONVERGENCE BLOCK: "$OLVER01" (MODEL: "SQP")      
                                                               (OPTIPH.2)       
      LINE SEARCH NOT CONVERGED IN 5 ITERATIONS.                                
      FINAL STEP = 0.81000E-02.                                                 
      OPTIMIZATION ITERATIONS TERMINATED. OPTIMIZATION VARIABLES                
      AND RESULTS WILL BE LEFT AT THEIR CURRENT VALUES.                         
      MAGNITUDE OF INEQUALITY CONSTRAINT VIOLATIONS =      0.0000    
      NUMBER OF TIGHT INEQUALITY CONSTRAINTS =    2
      NUMBER OF VIOLATED INEQUALITY CONSTRAINTS =    0
      CONSTRAINT   1: MOLE-C7      ERROR =  -0.53065E-03   STATUS = ACT 
      CONSTRAINT   2: MOLE-TOL     ERROR =  -0.95914E-03   STATUS = ACT 
     OBJECTIVE FUNCTION VALUE =    239.49    

  LOOP $OLVER01 ITER   12: OBJ   0.24E+03 UNCON CONST   0 MAX ERR/TOL   0.35E-01  TIME =       1.53

  **  ERROR WHILE IN SEQUENCE MONITOR                          (CHKCVG.1)       
      Convergence block $OLVER01 did not converge                               
      normally in the final pass                                                

 STREAM TOLUENE 
        SUBSTREAM MIXED     F =  5.555555555555567E-03  T =   382.983906395453      P =   100000.000000000    
                            H =   55509456.5079362      V =   1.00000000000000      L =   0.00000000000000    
                            ENTROPY =  -2372.96309642742      DENSITY =   2.98342022754481      MW =   92.3014239994000    
        N-HEPTAN  1.108504324986756E-04  TOLUE-01  5.444671446178642E-03  PHENO-01  3.367687825004724E-08
        WATER      0.00000000000000    

 STREAM LEAN-SOL
        SUBSTREAM MIXED     F =  3.059094189907786E-02  T =   409.805207206215      P =   100000.000000000    
                            H =  -79493804.1193034      V =   0.00000000000000      L =   1.00000000000000    
                            ENTROPY =  -2802.09133244409      DENSITY =   902.096070968469      MW =   93.5926784697827    
        N-HEPTAN  7.134045934335921E-05  TOLUE-01  8.290351466780307E-03  PHENO-01  2.222924997295420E-02
        WATER      0.00000000000000    

 STREAM C7      
        SUBSTREAM MIXED     F =  1.397973121933505E-02  T =   371.358806228360      P =   100000.000000000    
                            H =  -171352234.649219      V =   1.00000000000000      L =   0.00000000000000    
                            ENTROPY =  -6080.67233088194      DENSITY =   3.36260187766283      MW =   100.063368548177    
        N-HEPTAN  1.370669799519571E-02  TOLUE-01  1.538659777810950E-04  PHENO-01  1.191672463582449E-04
        WATER      0.00000000000000    

 STREAM RICH-SOL
        SUBSTREAM MIXED     F =  3.614649745463344E-02  T =   403.068930088024      P =   100000.000000000    
                            H =  -62366492.1519995      V =   0.00000000000000      L =   1.00000000000000    
                            ENTROPY =  -2828.94914862586      DENSITY =   880.831286616415      MW =   93.3942184131576    
        N-HEPTAN  1.821908936931784E-04  TOLUE-01  1.373502291110783E-02  PHENO-01  2.222928364983243E-02
        WATER      0.00000000000000    
